<?xml version="1.0" encoding="UTF-8"?>

<!-- generated on 2025-11-20 10:47:29 by Eclipse SUMO jtrrouter Version 1.24.0
<jtrrouterConfiguration xmlns:xsi="http://www.w3.org/2001/XMLSchema-instance" xsi:noNamespaceSchemaLocation="http://sumo.dlr.de/xsd/jtrrouterConfiguration.xsd">

    <input>
        <net-file value="/home/hoanganh04/Projects/LLM-Assisted-Light/TSCScenario/map/./env/map.net.xml"/>
        <route-files value="/home/hoanganh04/Projects/LLM-Assisted-Light/TSCScenario/map/./_testflow.trip.xml"/>
        <turn-ratio-files value="/home/hoanganh04/Projects/LLM-Assisted-Light/TSCScenario/map/./_testflow.turndefs.xml"/>
    </input>

    <output>
        <output-file value="/home/hoanganh04/Projects/LLM-Assisted-Light/TSCScenario/map/./routes/gio_cao_diem_2/vehicle.rou.xml"/>
    </output>

    <processing>
        <randomize-flows value="True"/>
        <accept-all-destinations value="True"/>
    </processing>

    <defaults>
        <departlane value="random"/>
    </defaults>

    <report>
        <no-warnings value="true"/>
    </report>

    <random_number>
        <seed value="777"/>
    </random_number>

</jtrrouterConfiguration>
-->

<routes xmlns:xsi="http://www.w3.org/2001/XMLSchema-instance" xsi:noNamespaceSchemaLocation="http://sumo.dlr.de/xsd/routes_file.xsd">
    <vType id="motorbike" length="2.00" minGap="0.50" maxSpeed="11.11" desiredMaxSpeed="11.11" vClass="motorcycle" color="grey" accel="1.5" tau="1.0"/>
    <vehicle id="-E3__0__motorbike.0" type="motorbike" depart="0.03" departLane="random">
        <route edges="-E3 E1"/>
    </vehicle>
    <vehicle id="-E5__0__motorbike.0" type="motorbike" depart="0.09" departLane="random">
        <route edges="-E5 -E4"/>
    </vehicle>
    <vehicle id="-E5__0__motorbike.1" type="motorbike" depart="0.19" departLane="random">
        <route edges="-E5 -E4"/>
    </vehicle>
    <vehicle id="E4__0__motorbike.0" type="motorbike" depart="0.29" departLane="random">
        <route edges="E4 E5"/>
    </vehicle>
    <vType id="car" length="4.50" minGap="1.00" maxSpeed="11.11" desiredMaxSpeed="11.11" vClass="passenger" color="155,89,182" accel="1.5" tau="1.0"/>
    <vehicle id="-E1__0__car.0" type="car" depart="0.84" departLane="random">
        <route edges="-E1 E3"/>
    </vehicle>
    <vehicle id="-E3__0__car.0" type="car" depart="1.54" departLane="random">
        <route edges="-E3 E1"/>
    </vehicle>
    <vehicle id="-E5__0__motorbike.2" type="motorbike" depart="1.72" departLane="random">
        <route edges="-E5 -E4"/>
    </vehicle>
    <vehicle id="E4__0__car.0" type="car" depart="2.31" departLane="random">
        <route edges="E4 E5"/>
    </vehicle>
    <vehicle id="-E5__0__motorbike.3" type="motorbike" depart="3.43" departLane="random">
        <route edges="-E5 -E4"/>
    </vehicle>
    <vehicle id="-E5__0__motorbike.4" type="motorbike" depart="3.47" departLane="random">
        <route edges="-E5 -E4"/>
    </vehicle>
    <vehicle id="-E1__0__motorbike.0" type="motorbike" depart="3.58" departLane="random">
        <route edges="-E1 E3"/>
    </vehicle>
    <vehicle id="-E2__0__motorbike.0" type="motorbike" depart="4.16" departLane="random">
        <route edges="-E2 E0 -E6"/>
    </vehicle>
    <vehicle id="-E3__0__motorbike.1" type="motorbike" depart="4.54" departLane="random">
        <route edges="-E3 E1"/>
    </vehicle>
    <vehicle id="-E5__0__car.0" type="car" depart="4.84" departLane="random">
        <route edges="-E5 -E4"/>
    </vehicle>
    <vehicle id="-E1__0__car.1" type="car" depart="5.68" departLane="random">
        <route edges="-E1 E3"/>
    </vehicle>
    <vehicle id="-E3__0__motorbike.2" type="motorbike" depart="5.99" departLane="random">
        <route edges="-E3 E1"/>
    </vehicle>
    <vehicle id="-E1__0__motorbike.1" type="motorbike" depart="6.54" departLane="random">
        <route edges="-E1 E3"/>
    </vehicle>
    <vehicle id="-E1__0__motorbike.2" type="motorbike" depart="6.80" departLane="random">
        <route edges="-E1 E3"/>
    </vehicle>
    <vehicle id="-E1__0__car.2" type="car" depart="7.71" departLane="random">
        <route edges="-E1 E3"/>
    </vehicle>
    <vehicle id="-E3__0__motorbike.3" type="motorbike" depart="7.95" departLane="random">
        <route edges="-E3 E1"/>
    </vehicle>
    <vehicle id="E4__0__motorbike.1" type="motorbike" depart="8.46" departLane="random">
        <route edges="E4 E5"/>
    </vehicle>
    <vehicle id="E4__0__motorbike.2" type="motorbike" depart="8.53" departLane="random">
        <route edges="E4 E5"/>
    </vehicle>
    <vehicle id="-E3__0__motorbike.4" type="motorbike" depart="9.31" departLane="random">
        <route edges="-E3 E1"/>
    </vehicle>
    <vehicle id="-E5__0__motorbike.5" type="motorbike" depart="10.17" departLane="random">
        <route edges="-E5 -E4"/>
    </vehicle>
    <vehicle id="-E1__0__motorbike.3" type="motorbike" depart="10.82" departLane="random">
        <route edges="-E1 E3"/>
    </vehicle>
    <vehicle id="-E1__0__motorbike.4" type="motorbike" depart="10.88" departLane="random">
        <route edges="-E1 E3"/>
    </vehicle>
    <vehicle id="-E1__0__motorbike.5" type="motorbike" depart="11.03" departLane="random">
        <route edges="-E1 E3"/>
    </vehicle>
    <vehicle id="-E3__0__motorbike.5" type="motorbike" depart="11.26" departLane="random">
        <route edges="-E3 E1"/>
    </vehicle>
    <vehicle id="-E5__0__motorbike.6" type="motorbike" depart="12.29" departLane="random">
        <route edges="-E5 -E4"/>
    </vehicle>
    <vehicle id="-E1__0__motorbike.6" type="motorbike" depart="12.32" departLane="random">
        <route edges="-E1 E3"/>
    </vehicle>
    <vehicle id="-E5__0__motorbike.7" type="motorbike" depart="12.41" departLane="random">
        <route edges="-E5 -E4"/>
    </vehicle>
    <vehicle id="-E5__0__motorbike.8" type="motorbike" depart="13.67" departLane="random">
        <route edges="-E5 -E4"/>
    </vehicle>
    <vehicle id="-E5__0__motorbike.9" type="motorbike" depart="14.01" departLane="random">
        <route edges="-E5 -E4"/>
    </vehicle>
    <vehicle id="E4__0__motorbike.3" type="motorbike" depart="14.15" departLane="random">
        <route edges="E4 E5"/>
    </vehicle>
    <vehicle id="E4__0__motorbike.4" type="motorbike" depart="14.36" departLane="random">
        <route edges="E4 E5"/>
    </vehicle>
    <vehicle id="-E3__0__motorbike.6" type="motorbike" depart="15.08" departLane="random">
        <route edges="-E3 E1"/>
    </vehicle>
    <vehicle id="-E3__0__car.1" type="car" depart="15.59" departLane="random">
        <route edges="-E3 E1"/>
    </vehicle>
    <vehicle id="-E1__0__car.3" type="car" depart="15.68" departLane="random">
        <route edges="-E1 E3"/>
    </vehicle>
    <vehicle id="-E1__0__motorbike.7" type="motorbike" depart="15.93" departLane="random">
        <route edges="-E1 E3"/>
    </vehicle>
    <vehicle id="E4__0__motorbike.5" type="motorbike" depart="16.26" departLane="random">
        <route edges="E4 E5"/>
    </vehicle>
    <vehicle id="-E3__0__car.2" type="car" depart="16.46" departLane="random">
        <route edges="-E3 E1"/>
    </vehicle>
    <vehicle id="-E5__0__motorbike.10" type="motorbike" depart="16.73" departLane="random">
        <route edges="-E5 -E4"/>
    </vehicle>
    <vehicle id="-E1__0__car.4" type="car" depart="16.75" departLane="random">
        <route edges="-E1 E3"/>
    </vehicle>
    <vehicle id="-E1__0__motorbike.8" type="motorbike" depart="17.37" departLane="random">
        <route edges="-E1 E3"/>
    </vehicle>
    <vehicle id="E4__0__car.1" type="car" depart="17.86" departLane="random">
        <route edges="E4 E5"/>
    </vehicle>
    <vehicle id="-E3__0__car.3" type="car" depart="18.84" departLane="random">
        <route edges="-E3 E1"/>
    </vehicle>
    <vehicle id="E6__0__motorbike.0" type="motorbike" depart="19.11" departLane="random">
        <route edges="E6 -E0 E3"/>
    </vehicle>
    <vehicle id="-E1__0__motorbike.9" type="motorbike" depart="19.28" departLane="random">
        <route edges="-E1 E3"/>
    </vehicle>
    <vehicle id="E4__0__motorbike.6" type="motorbike" depart="19.56" departLane="random">
        <route edges="E4 E5"/>
    </vehicle>
    <vehicle id="-E1__0__motorbike.10" type="motorbike" depart="20.32" departLane="random">
        <route edges="-E1 E3"/>
    </vehicle>
    <vehicle id="-E5__0__motorbike.11" type="motorbike" depart="20.50" departLane="random">
        <route edges="-E5 -E6"/>
    </vehicle>
    <vehicle id="-E5__0__motorbike.12" type="motorbike" depart="23.16" departLane="random">
        <route edges="-E5 -E4"/>
    </vehicle>
    <vehicle id="-E2__0__motorbike.1" type="motorbike" depart="23.35" departLane="random">
        <route edges="-E2 E0 -E6"/>
    </vehicle>
    <vehicle id="E6__0__motorbike.1" type="motorbike" depart="23.38" departLane="random">
        <route edges="E6 -E0 E2"/>
    </vehicle>
    <vehicle id="E4__0__motorbike.7" type="motorbike" depart="24.00" departLane="random">
        <route edges="E4 E5"/>
    </vehicle>
    <vehicle id="E4__0__motorbike.8" type="motorbike" depart="24.69" departLane="random">
        <route edges="E4 E5"/>
    </vehicle>
    <vehicle id="-E3__0__motorbike.7" type="motorbike" depart="25.22" departLane="random">
        <route edges="-E3 E1"/>
    </vehicle>
    <vehicle id="E4__0__motorbike.9" type="motorbike" depart="25.38" departLane="random">
        <route edges="E4 E5"/>
    </vehicle>
    <vehicle id="-E5__0__car.1" type="car" depart="25.80" departLane="random">
        <route edges="-E5 -E4"/>
    </vehicle>
    <vehicle id="E6__0__motorbike.2" type="motorbike" depart="25.85" departLane="random">
        <route edges="E6 -E0 E2"/>
    </vehicle>
    <vehicle id="-E5__0__motorbike.13" type="motorbike" depart="25.86" departLane="random">
        <route edges="-E5 -E4"/>
    </vehicle>
    <vehicle id="-E1__0__motorbike.11" type="motorbike" depart="25.90" departLane="random">
        <route edges="-E1 E3"/>
    </vehicle>
    <vehicle id="-E3__0__motorbike.8" type="motorbike" depart="26.23" departLane="random">
        <route edges="-E3 E1"/>
    </vehicle>
    <vehicle id="-E3__0__motorbike.9" type="motorbike" depart="26.40" departLane="random">
        <route edges="-E3 E1"/>
    </vehicle>
    <vehicle id="-E1__0__motorbike.12" type="motorbike" depart="26.70" departLane="random">
        <route edges="-E1 E3"/>
    </vehicle>
    <vehicle id="-E1__0__motorbike.13" type="motorbike" depart="26.95" departLane="random">
        <route edges="-E1 E3"/>
    </vehicle>
    <vehicle id="-E5__0__motorbike.14" type="motorbike" depart="27.35" departLane="random">
        <route edges="-E5 -E4"/>
    </vehicle>
    <vehicle id="-E3__0__motorbike.10" type="motorbike" depart="28.29" departLane="random">
        <route edges="-E3 E1"/>
    </vehicle>
    <vehicle id="E4__0__motorbike.10" type="motorbike" depart="28.54" departLane="random">
        <route edges="E4 E5"/>
    </vehicle>
    <vehicle id="-E1__0__motorbike.14" type="motorbike" depart="28.79" departLane="random">
        <route edges="-E1 E3"/>
    </vehicle>
    <vehicle id="-E3__0__car.4" type="car" depart="29.83" departLane="random">
        <route edges="-E3 E1"/>
    </vehicle>
    <vehicle id="E4__0__motorbike.11" type="motorbike" depart="30.51" departLane="random">
        <route edges="E4 E5"/>
    </vehicle>
    <vehicle id="-E3__0__motorbike.11" type="motorbike" depart="30.89" departLane="random">
        <route edges="-E3 E1"/>
    </vehicle>
    <vehicle id="-E3__0__motorbike.12" type="motorbike" depart="31.08" departLane="random">
        <route edges="-E3 E2"/>
    </vehicle>
    <vehicle id="E4__0__car.2" type="car" depart="31.41" departLane="random">
        <route edges="E4 E5"/>
    </vehicle>
    <vehicle id="E4__0__motorbike.12" type="motorbike" depart="31.76" departLane="random">
        <route edges="E4 E5"/>
    </vehicle>
    <vehicle id="-E5__0__motorbike.15" type="motorbike" depart="31.85" departLane="random">
        <route edges="-E5 -E4"/>
    </vehicle>
    <vehicle id="E4__0__motorbike.13" type="motorbike" depart="31.94" departLane="random">
        <route edges="E4 E5"/>
    </vehicle>
    <vehicle id="E4__0__motorbike.14" type="motorbike" depart="32.29" departLane="random">
        <route edges="E4 E5"/>
    </vehicle>
    <vehicle id="E4__0__car.3" type="car" depart="33.35" departLane="random">
        <route edges="E4 E5"/>
    </vehicle>
    <vehicle id="E4__0__car.4" type="car" depart="33.66" departLane="random">
        <route edges="E4 E5"/>
    </vehicle>
    <vehicle id="-E3__0__motorbike.13" type="motorbike" depart="33.66" departLane="random">
        <route edges="-E3 E1"/>
    </vehicle>
    <vehicle id="E4__0__car.5" type="car" depart="34.35" departLane="random">
        <route edges="E4 E5"/>
    </vehicle>
    <vehicle id="E4__0__motorbike.15" type="motorbike" depart="35.15" departLane="random">
        <route edges="E4 E5"/>
    </vehicle>
    <vehicle id="-E5__0__motorbike.16" type="motorbike" depart="35.70" departLane="random">
        <route edges="-E5 -E4"/>
    </vehicle>
    <vehicle id="-E1__0__car.5" type="car" depart="35.91" departLane="random">
        <route edges="-E1 E3"/>
    </vehicle>
    <vehicle id="-E1__0__motorbike.15" type="motorbike" depart="36.79" departLane="random">
        <route edges="-E1 E3"/>
    </vehicle>
    <vehicle id="E4__0__motorbike.16" type="motorbike" depart="37.85" departLane="random">
        <route edges="E4 E5"/>
    </vehicle>
    <vehicle id="-E5__0__motorbike.17" type="motorbike" depart="37.85" departLane="random">
        <route edges="-E5 -E4"/>
    </vehicle>
    <vehicle id="-E3__0__motorbike.14" type="motorbike" depart="39.15" departLane="random">
        <route edges="-E3 E1"/>
    </vehicle>
    <vehicle id="-E5__0__motorbike.18" type="motorbike" depart="39.52" departLane="random">
        <route edges="-E5 -E4"/>
    </vehicle>
    <vehicle id="E4__0__motorbike.17" type="motorbike" depart="39.82" departLane="random">
        <route edges="E4 E5"/>
    </vehicle>
    <vehicle id="-E1__0__motorbike.16" type="motorbike" depart="40.54" departLane="random">
        <route edges="-E1 E3"/>
    </vehicle>
    <vehicle id="-E1__0__motorbike.17" type="motorbike" depart="40.85" departLane="random">
        <route edges="-E1 E3"/>
    </vehicle>
    <vehicle id="-E1__0__motorbike.18" type="motorbike" depart="41.30" departLane="random">
        <route edges="-E1 E3"/>
    </vehicle>
    <vehicle id="-E5__0__car.2" type="car" depart="42.11" departLane="random">
        <route edges="-E5 -E6"/>
    </vehicle>
    <vehicle id="-E5__0__car.3" type="car" depart="42.53" departLane="random">
        <route edges="-E5 -E4"/>
    </vehicle>
    <vehicle id="E4__0__car.6" type="car" depart="42.62" departLane="random">
        <route edges="E4 E5"/>
    </vehicle>
    <vehicle id="-E3__0__car.5" type="car" depart="42.87" departLane="random">
        <route edges="-E3 E1"/>
    </vehicle>
    <vehicle id="-E3__0__motorbike.15" type="motorbike" depart="43.19" departLane="random">
        <route edges="-E3 E1"/>
    </vehicle>
    <vehicle id="-E3__0__motorbike.16" type="motorbike" depart="43.28" departLane="random">
        <route edges="-E3 E1"/>
    </vehicle>
    <vehicle id="-E5__0__car.4" type="car" depart="43.32" departLane="random">
        <route edges="-E5 -E4"/>
    </vehicle>
    <vehicle id="E6__0__motorbike.3" type="motorbike" depart="43.50" departLane="random">
        <route edges="E6 -E0 E2"/>
    </vehicle>
    <vehicle id="-E5__0__car.5" type="car" depart="43.99" departLane="random">
        <route edges="-E5 -E4"/>
    </vehicle>
    <vehicle id="E4__0__motorbike.18" type="motorbike" depart="44.08" departLane="random">
        <route edges="E4 E5"/>
    </vehicle>
    <vehicle id="E4__0__car.7" type="car" depart="44.42" departLane="random">
        <route edges="E4 E5"/>
    </vehicle>
    <vehicle id="-E1__0__motorbike.19" type="motorbike" depart="44.46" departLane="random">
        <route edges="-E1 E3"/>
    </vehicle>
    <vehicle id="-E5__0__motorbike.19" type="motorbike" depart="44.98" departLane="random">
        <route edges="-E5 -E4"/>
    </vehicle>
    <vehicle id="-E5__0__car.6" type="car" depart="45.08" departLane="random">
        <route edges="-E5 -E4"/>
    </vehicle>
    <vehicle id="E4__0__motorbike.19" type="motorbike" depart="45.09" departLane="random">
        <route edges="E4 E5"/>
    </vehicle>
    <vehicle id="-E3__0__car.6" type="car" depart="45.90" departLane="random">
        <route edges="-E3 E1"/>
    </vehicle>
    <vehicle id="-E1__0__car.6" type="car" depart="46.02" departLane="random">
        <route edges="-E1 E3"/>
    </vehicle>
    <vehicle id="-E3__0__motorbike.17" type="motorbike" depart="46.02" departLane="random">
        <route edges="-E3 E1"/>
    </vehicle>
    <vehicle id="E4__0__motorbike.20" type="motorbike" depart="47.20" departLane="random">
        <route edges="E4 E5"/>
    </vehicle>
    <vehicle id="-E5__0__motorbike.20" type="motorbike" depart="47.92" departLane="random">
        <route edges="-E5 -E4"/>
    </vehicle>
    <vehicle id="-E1__0__motorbike.20" type="motorbike" depart="47.92" departLane="random">
        <route edges="-E1 E3"/>
    </vehicle>
    <vehicle id="-E3__0__motorbike.18" type="motorbike" depart="48.14" departLane="random">
        <route edges="-E3 E1"/>
    </vehicle>
    <vehicle id="-E1__0__car.7" type="car" depart="48.23" departLane="random">
        <route edges="-E1 E3"/>
    </vehicle>
    <vehicle id="-E3__0__motorbike.19" type="motorbike" depart="49.14" departLane="random">
        <route edges="-E3 E1"/>
    </vehicle>
    <vehicle id="E4__0__motorbike.21" type="motorbike" depart="49.49" departLane="random">
        <route edges="E4 E5"/>
    </vehicle>
    <vehicle id="-E5__0__motorbike.21" type="motorbike" depart="50.44" departLane="random">
        <route edges="-E5 -E4"/>
    </vehicle>
    <vehicle id="-E5__0__motorbike.22" type="motorbike" depart="50.49" departLane="random">
        <route edges="-E5 -E4"/>
    </vehicle>
    <vehicle id="-E3__0__motorbike.20" type="motorbike" depart="51.42" departLane="random">
        <route edges="-E3 E1"/>
    </vehicle>
    <vehicle id="-E2__0__motorbike.2" type="motorbike" depart="51.52" departLane="random">
        <route edges="-E2 E1"/>
    </vehicle>
    <vehicle id="-E1__0__motorbike.21" type="motorbike" depart="52.13" departLane="random">
        <route edges="-E1 E3"/>
    </vehicle>
    <vehicle id="-E5__0__motorbike.23" type="motorbike" depart="52.24" departLane="random">
        <route edges="-E5 -E4"/>
    </vehicle>
    <vehicle id="-E2__0__motorbike.3" type="motorbike" depart="53.45" departLane="random">
        <route edges="-E2 E0 -E6"/>
    </vehicle>
    <vehicle id="-E3__0__motorbike.21" type="motorbike" depart="53.47" departLane="random">
        <route edges="-E3 E1"/>
    </vehicle>
    <vehicle id="E4__0__motorbike.22" type="motorbike" depart="53.82" departLane="random">
        <route edges="E4 E5"/>
    </vehicle>
    <vehicle id="-E3__0__motorbike.22" type="motorbike" depart="54.52" departLane="random">
        <route edges="-E3 E1"/>
    </vehicle>
    <vehicle id="-E1__0__motorbike.22" type="motorbike" depart="54.94" departLane="random">
        <route edges="-E1 E3"/>
    </vehicle>
    <vehicle id="-E1__0__car.8" type="car" depart="56.15" departLane="random">
        <route edges="-E1 E3"/>
    </vehicle>
    <vehicle id="E4__0__motorbike.23" type="motorbike" depart="57.22" departLane="random">
        <route edges="E4 E5"/>
    </vehicle>
    <vehicle id="-E3__0__motorbike.23" type="motorbike" depart="57.89" departLane="random">
        <route edges="-E3 E1"/>
    </vehicle>
    <vehicle id="-E5__0__motorbike.24" type="motorbike" depart="58.72" departLane="random">
        <route edges="-E5 -E4"/>
    </vehicle>
    <vehicle id="-E3__0__motorbike.24" type="motorbike" depart="59.78" departLane="random">
        <route edges="-E3 E1"/>
    </vehicle>
    <vehicle id="-E1__1__motorbike.0" type="motorbike" depart="60.02" departLane="random">
        <route edges="-E1 E3"/>
    </vehicle>
    <vehicle id="-E1__1__car.0" type="car" depart="61.00" departLane="random">
        <route edges="-E1 E3"/>
    </vehicle>
    <vehicle id="-E3__1__motorbike.0" type="motorbike" depart="61.21" departLane="random">
        <route edges="-E3 E1"/>
    </vehicle>
    <vehicle id="-E1__1__motorbike.1" type="motorbike" depart="61.48" departLane="random">
        <route edges="-E1 E3"/>
    </vehicle>
    <vehicle id="E6__1__motorbike.0" type="motorbike" depart="62.73" departLane="random">
        <route edges="E6 -E0 E2"/>
    </vehicle>
    <vehicle id="-E5__1__car.0" type="car" depart="63.44" departLane="random">
        <route edges="-E5 -E4"/>
    </vehicle>
    <vehicle id="-E5__1__car.1" type="car" depart="63.47" departLane="random">
        <route edges="-E5 -E4"/>
    </vehicle>
    <vehicle id="-E2__1__car.0" type="car" depart="63.60" departLane="random">
        <route edges="-E2 E0 -E6"/>
    </vehicle>
    <vehicle id="E4__1__motorbike.0" type="motorbike" depart="64.98" departLane="random">
        <route edges="E4 -E0 E2"/>
    </vehicle>
    <vehicle id="E4__1__motorbike.1" type="motorbike" depart="65.02" departLane="random">
        <route edges="E4 E5"/>
    </vehicle>
    <vehicle id="-E5__1__motorbike.0" type="motorbike" depart="65.34" departLane="random">
        <route edges="-E5 -E4"/>
    </vehicle>
    <vehicle id="-E1__1__motorbike.2" type="motorbike" depart="65.41" departLane="random">
        <route edges="-E1 E3"/>
    </vehicle>
    <vehicle id="-E5__1__car.2" type="car" depart="66.85" departLane="random">
        <route edges="-E5 -E4"/>
    </vehicle>
    <vehicle id="E4__1__motorbike.2" type="motorbike" depart="67.40" departLane="random">
        <route edges="E4 E5"/>
    </vehicle>
    <vehicle id="-E3__1__car.0" type="car" depart="67.55" departLane="random">
        <route edges="-E3 E1"/>
    </vehicle>
    <vehicle id="-E1__1__car.1" type="car" depart="68.79" departLane="random">
        <route edges="-E1 E3"/>
    </vehicle>
    <vehicle id="-E1__1__car.2" type="car" depart="68.82" departLane="random">
        <route edges="-E1 E3"/>
    </vehicle>
    <vehicle id="-E3__1__motorbike.1" type="motorbike" depart="69.26" departLane="random">
        <route edges="-E3 E1"/>
    </vehicle>
    <vehicle id="-E1__1__motorbike.3" type="motorbike" depart="69.59" departLane="random">
        <route edges="-E1 E3"/>
    </vehicle>
    <vehicle id="-E1__1__motorbike.4" type="motorbike" depart="69.59" departLane="random">
        <route edges="-E1 E3"/>
    </vehicle>
    <vehicle id="E4__1__motorbike.3" type="motorbike" depart="69.68" departLane="random">
        <route edges="E4 E5"/>
    </vehicle>
    <vehicle id="E6__1__car.0" type="car" depart="70.24" departLane="random">
        <route edges="E6 -E0 E2"/>
    </vehicle>
    <vehicle id="-E5__1__motorbike.1" type="motorbike" depart="70.58" departLane="random">
        <route edges="-E5 -E4"/>
    </vehicle>
    <vehicle id="-E5__1__car.3" type="car" depart="70.71" departLane="random">
        <route edges="-E5 -E4"/>
    </vehicle>
    <vehicle id="-E5__1__motorbike.2" type="motorbike" depart="70.81" departLane="random">
        <route edges="-E5 -E4"/>
    </vehicle>
    <vehicle id="E4__1__motorbike.4" type="motorbike" depart="73.00" departLane="random">
        <route edges="E4 E5"/>
    </vehicle>
    <vehicle id="-E5__1__car.4" type="car" depart="73.15" departLane="random">
        <route edges="-E5 -E4"/>
    </vehicle>
    <vehicle id="-E5__1__motorbike.3" type="motorbike" depart="73.62" departLane="random">
        <route edges="-E5 -E4"/>
    </vehicle>
    <vehicle id="-E1__1__car.3" type="car" depart="73.75" departLane="random">
        <route edges="-E1 E2"/>
    </vehicle>
    <vehicle id="E4__1__motorbike.5" type="motorbike" depart="73.90" departLane="random">
        <route edges="E4 -E0 E2"/>
    </vehicle>
    <vehicle id="-E3__1__car.1" type="car" depart="75.95" departLane="random">
        <route edges="-E3 E1"/>
    </vehicle>
    <vehicle id="-E1__1__motorbike.5" type="motorbike" depart="76.61" departLane="random">
        <route edges="-E1 E3"/>
    </vehicle>
    <vehicle id="-E1__1__motorbike.6" type="motorbike" depart="77.09" departLane="random">
        <route edges="-E1 E3"/>
    </vehicle>
    <vehicle id="-E3__1__motorbike.2" type="motorbike" depart="77.41" departLane="random">
        <route edges="-E3 E1"/>
    </vehicle>
    <vehicle id="-E3__1__car.2" type="car" depart="78.20" departLane="random">
        <route edges="-E3 E1"/>
    </vehicle>
    <vehicle id="-E1__1__car.4" type="car" depart="78.82" departLane="random">
        <route edges="-E1 E3"/>
    </vehicle>
    <vehicle id="-E1__1__motorbike.7" type="motorbike" depart="79.40" departLane="random">
        <route edges="-E1 E3"/>
    </vehicle>
    <vehicle id="-E5__1__motorbike.4" type="motorbike" depart="80.24" departLane="random">
        <route edges="-E5 -E4"/>
    </vehicle>
    <vehicle id="-E1__1__car.5" type="car" depart="81.15" departLane="random">
        <route edges="-E1 E3"/>
    </vehicle>
    <vehicle id="-E1__1__car.6" type="car" depart="81.25" departLane="random">
        <route edges="-E1 E0 -E6"/>
    </vehicle>
    <vehicle id="-E5__1__motorbike.5" type="motorbike" depart="82.06" departLane="random">
        <route edges="-E5 -E4"/>
    </vehicle>
    <vehicle id="-E3__1__motorbike.3" type="motorbike" depart="82.40" departLane="random">
        <route edges="-E3 E1"/>
    </vehicle>
    <vehicle id="-E3__1__motorbike.4" type="motorbike" depart="83.58" departLane="random">
        <route edges="-E3 E1"/>
    </vehicle>
    <vehicle id="E4__1__motorbike.6" type="motorbike" depart="84.06" departLane="random">
        <route edges="E4 E5"/>
    </vehicle>
    <vehicle id="-E3__1__motorbike.5" type="motorbike" depart="84.84" departLane="random">
        <route edges="-E3 E1"/>
    </vehicle>
    <vehicle id="-E3__1__motorbike.6" type="motorbike" depart="85.07" departLane="random">
        <route edges="-E3 E1"/>
    </vehicle>
    <vehicle id="-E1__1__car.7" type="car" depart="85.18" departLane="random">
        <route edges="-E1 E3"/>
    </vehicle>
    <vehicle id="-E3__1__motorbike.7" type="motorbike" depart="86.74" departLane="random">
        <route edges="-E3 E1"/>
    </vehicle>
    <vehicle id="E4__1__motorbike.7" type="motorbike" depart="86.84" departLane="random">
        <route edges="E4 -E6"/>
    </vehicle>
    <vehicle id="-E5__1__motorbike.6" type="motorbike" depart="87.01" departLane="random">
        <route edges="-E5 -E4"/>
    </vehicle>
    <vehicle id="E4__1__car.0" type="car" depart="87.25" departLane="random">
        <route edges="E4 E5"/>
    </vehicle>
    <vehicle id="-E3__1__motorbike.8" type="motorbike" depart="87.54" departLane="random">
        <route edges="-E3 E1"/>
    </vehicle>
    <vehicle id="-E5__1__motorbike.7" type="motorbike" depart="88.08" departLane="random">
        <route edges="-E5 -E4"/>
    </vehicle>
    <vehicle id="-E5__1__motorbike.8" type="motorbike" depart="88.11" departLane="random">
        <route edges="-E5 -E4"/>
    </vehicle>
    <vehicle id="-E3__1__motorbike.9" type="motorbike" depart="89.73" departLane="random">
        <route edges="-E3 E1"/>
    </vehicle>
    <vehicle id="-E1__1__motorbike.8" type="motorbike" depart="90.15" departLane="random">
        <route edges="-E1 E3"/>
    </vehicle>
    <vehicle id="-E5__1__motorbike.9" type="motorbike" depart="90.61" departLane="random">
        <route edges="-E5 -E4"/>
    </vehicle>
    <vehicle id="-E5__1__motorbike.10" type="motorbike" depart="90.73" departLane="random">
        <route edges="-E5 -E4"/>
    </vehicle>
    <vehicle id="E6__1__motorbike.1" type="motorbike" depart="91.07" departLane="random">
        <route edges="E6 -E0 E2"/>
    </vehicle>
    <vehicle id="-E5__1__motorbike.11" type="motorbike" depart="91.28" departLane="random">
        <route edges="-E5 -E4"/>
    </vehicle>
    <vehicle id="-E5__1__motorbike.12" type="motorbike" depart="91.50" departLane="random">
        <route edges="-E5 -E4"/>
    </vehicle>
    <vehicle id="E4__1__motorbike.8" type="motorbike" depart="91.63" departLane="random">
        <route edges="E4 E5"/>
    </vehicle>
    <vehicle id="-E3__1__motorbike.10" type="motorbike" depart="91.72" departLane="random">
        <route edges="-E3 E1"/>
    </vehicle>
    <vehicle id="E4__1__motorbike.9" type="motorbike" depart="92.07" departLane="random">
        <route edges="E4 E5"/>
    </vehicle>
    <vehicle id="E6__1__car.1" type="car" depart="92.14" departLane="random">
        <route edges="E6 -E0 E2"/>
    </vehicle>
    <vehicle id="-E5__1__car.5" type="car" depart="92.85" departLane="random">
        <route edges="-E5 -E4"/>
    </vehicle>
    <vehicle id="-E1__1__motorbike.9" type="motorbike" depart="93.16" departLane="random">
        <route edges="-E1 E3"/>
    </vehicle>
    <vehicle id="E4__1__motorbike.10" type="motorbike" depart="93.36" departLane="random">
        <route edges="E4 E5"/>
    </vehicle>
    <vehicle id="-E3__1__motorbike.11" type="motorbike" depart="93.39" departLane="random">
        <route edges="-E3 E1"/>
    </vehicle>
    <vehicle id="-E5__1__car.6" type="car" depart="93.56" departLane="random">
        <route edges="-E5 -E4"/>
    </vehicle>
    <vehicle id="-E5__1__motorbike.13" type="motorbike" depart="93.57" departLane="random">
        <route edges="-E5 -E4"/>
    </vehicle>
    <vehicle id="E4__1__motorbike.11" type="motorbike" depart="93.90" departLane="random">
        <route edges="E4 E5"/>
    </vehicle>
    <vehicle id="-E3__1__motorbike.12" type="motorbike" depart="94.31" departLane="random">
        <route edges="-E3 E1"/>
    </vehicle>
    <vehicle id="-E2__1__car.1" type="car" depart="94.60" departLane="random">
        <route edges="-E2 E0 -E6"/>
    </vehicle>