<?xml version="1.0" encoding="UTF-8"?>

<!-- generated on 2026-01-15 10:40:40 by Eclipse SUMO jtrrouter Version 1.24.0
<jtrrouterConfiguration xmlns:xsi="http://www.w3.org/2001/XMLSchema-instance" xsi:noNamespaceSchemaLocation="http://sumo.dlr.de/xsd/jtrrouterConfiguration.xsd">

    <input>
        <net-file value="/home/hoanganh04/Projects/CoLight/Scenario/1node/./env/1node.net.xml"/>
        <route-files value="/home/hoanganh04/Projects/CoLight/Scenario/1node/./_testflow.trip.xml"/>
        <turn-ratio-files value="/home/hoanganh04/Projects/CoLight/Scenario/1node/./_testflow.turndefs.xml"/>
    </input>

    <output>
        <output-file value="/home/hoanganh04/Projects/CoLight/Scenario/1node/./routes/vehicle.rou.xml"/>
    </output>

    <processing>
        <randomize-flows value="True"/>
        <accept-all-destinations value="True"/>
    </processing>

    <defaults>
        <departlane value="random"/>
    </defaults>

    <report>
        <no-warnings value="true"/>
    </report>

    <random_number>
        <seed value="777"/>
    </random_number>

</jtrrouterConfiguration>
-->

<routes xmlns:xsi="http://www.w3.org/2001/XMLSchema-instance" xsi:noNamespaceSchemaLocation="http://sumo.dlr.de/xsd/routes_file.xsd">
    <vType id="car" length="4.50" minGap="1.00" maxSpeed="11.11" desiredMaxSpeed="11.11" vClass="passenger" color="155,89,182" accel="1.5" tau="1.0"/>
    <vehicle id="-E3__0__car.0" type="car" depart="0.84" departLane="random">
        <route edges="-E3 E2"/>
    </vehicle>
    <vType id="motorbike" length="2.00" minGap="0.50" maxSpeed="11.11" desiredMaxSpeed="11.11" vClass="motorcycle" color="yellow" accel="1.5" tau="1.0"/>
    <vehicle id="-E2__0__motorbike.0" type="motorbike" depart="3.58" departLane="random">
        <route edges="-E2 E1"/>
    </vehicle>
    <vehicle id="E0__0__motorbike.0" type="motorbike" depart="4.16" departLane="random">
        <route edges="E0 E3"/>
    </vehicle>
    <vehicle id="-E3__0__motorbike.0" type="motorbike" depart="5.68" departLane="random">
        <route edges="-E3 E2"/>
    </vehicle>
    <vehicle id="E0__0__car.0" type="car" depart="5.99" departLane="random">
        <route edges="E0 E3"/>
    </vehicle>
    <vehicle id="-E2__0__motorbike.1" type="motorbike" depart="6.54" departLane="random">
        <route edges="-E2 E1"/>
    </vehicle>
    <vehicle id="-E2__0__motorbike.2" type="motorbike" depart="6.80" departLane="random">
        <route edges="-E2 E1"/>
    </vehicle>
    <vehicle id="-E3__0__motorbike.1" type="motorbike" depart="7.71" departLane="random">
        <route edges="-E3 E2"/>
    </vehicle>
    <vehicle id="E0__0__motorbike.1" type="motorbike" depart="7.95" departLane="random">
        <route edges="E0 E3"/>
    </vehicle>
    <vehicle id="-E3__0__motorbike.2" type="motorbike" depart="10.82" departLane="random">
        <route edges="-E3 E1"/>
    </vehicle>
    <vehicle id="-E1__0__motorbike.0" type="motorbike" depart="10.88" departLane="random">
        <route edges="-E1 -E0"/>
    </vehicle>
    <vehicle id="-E2__0__motorbike.3" type="motorbike" depart="11.03" departLane="random">
        <route edges="-E2 E1"/>
    </vehicle>
    <vehicle id="-E2__0__motorbike.4" type="motorbike" depart="12.32" departLane="random">
        <route edges="-E2 -E0"/>
    </vehicle>
    <vehicle id="-E3__0__motorbike.3" type="motorbike" depart="15.68" departLane="random">
        <route edges="-E3 E2"/>
    </vehicle>
    <vehicle id="-E1__0__motorbike.1" type="motorbike" depart="15.93" departLane="random">
        <route edges="-E1 -E0"/>
    </vehicle>
    <vehicle id="-E3__0__car.1" type="car" depart="16.75" departLane="random">
        <route edges="-E3 E2"/>
    </vehicle>
    <vehicle id="-E1__0__car.0" type="car" depart="17.37" departLane="random">
        <route edges="-E1 E3"/>
    </vehicle>
    <vehicle id="-E2__0__car.0" type="car" depart="19.28" departLane="random">
        <route edges="-E2 E1"/>
    </vehicle>
    <vehicle id="-E2__0__motorbike.5" type="motorbike" depart="20.32" departLane="random">
        <route edges="-E2 E1"/>
    </vehicle>
    <vehicle id="-E3__0__car.2" type="car" depart="23.35" departLane="random">
        <route edges="-E3 E2"/>
    </vehicle>
    <vehicle id="E0__0__car.1" type="car" depart="25.22" departLane="random">
        <route edges="E0 E3"/>
    </vehicle>
    <vehicle id="-E2__0__motorbike.6" type="motorbike" depart="25.90" departLane="random">
        <route edges="-E2 E1"/>
    </vehicle>
    <vehicle id="-E1__0__motorbike.2" type="motorbike" depart="26.70" departLane="random">
        <route edges="-E1 E3"/>
    </vehicle>
    <vehicle id="-E2__0__motorbike.7" type="motorbike" depart="26.95" departLane="random">
        <route edges="-E2 E1"/>
    </vehicle>
    <vehicle id="E0__0__car.2" type="car" depart="28.29" departLane="random">
        <route edges="E0 E3"/>
    </vehicle>
    <vehicle id="-E1__0__car.1" type="car" depart="28.79" departLane="random">
        <route edges="-E1 -E0"/>
    </vehicle>
    <vehicle id="E0__0__motorbike.2" type="motorbike" depart="33.66" departLane="random">
        <route edges="E0 E3"/>
    </vehicle>
    <vehicle id="-E3__0__motorbike.4" type="motorbike" depart="35.91" departLane="random">
        <route edges="-E3 E2"/>
    </vehicle>
    <vehicle id="-E1__0__motorbike.3" type="motorbike" depart="36.79" departLane="random">
        <route edges="-E1 E3"/>
    </vehicle>
    <vehicle id="-E1__0__motorbike.4" type="motorbike" depart="40.54" departLane="random">
        <route edges="-E1 -E0"/>
    </vehicle>
    <vehicle id="-E2__0__motorbike.8" type="motorbike" depart="40.85" departLane="random">
        <route edges="-E2 E1"/>
    </vehicle>
    <vehicle id="-E2__0__car.1" type="car" depart="41.30" departLane="random">
        <route edges="-E2 -E0"/>
    </vehicle>
    <vehicle id="E0__0__car.3" type="car" depart="43.19" departLane="random">
        <route edges="E0 E2"/>
    </vehicle>
    <vehicle id="-E1__0__car.2" type="car" depart="44.46" departLane="random">
        <route edges="-E1 E3"/>
    </vehicle>
    <vehicle id="-E3__0__motorbike.5" type="motorbike" depart="46.02" departLane="random">
        <route edges="-E3 E1"/>
    </vehicle>
    <vehicle id="E0__0__motorbike.3" type="motorbike" depart="46.02" departLane="random">
        <route edges="E0 E3"/>
    </vehicle>
    <vehicle id="-E1__0__motorbike.5" type="motorbike" depart="47.92" departLane="random">
        <route edges="-E1 E3"/>
    </vehicle>
    <vehicle id="E0__0__car.4" type="car" depart="48.14" departLane="random">
        <route edges="E0 E3"/>
    </vehicle>
    <vehicle id="-E3__0__motorbike.6" type="motorbike" depart="48.23" departLane="random">
        <route edges="-E3 E2"/>
    </vehicle>
    <vehicle id="E0__0__motorbike.4" type="motorbike" depart="51.52" departLane="random">
        <route edges="E0 E3"/>
    </vehicle>
    <vehicle id="-E1__0__motorbike.6" type="motorbike" depart="52.13" departLane="random">
        <route edges="-E1 -E0"/>
    </vehicle>
    <vehicle id="E0__0__motorbike.5" type="motorbike" depart="53.45" departLane="random">
        <route edges="E0 E1"/>
    </vehicle>
    <vehicle id="-E1__0__motorbike.7" type="motorbike" depart="54.94" departLane="random">
        <route edges="-E1 E3"/>
    </vehicle>
    <vehicle id="-E3__0__motorbike.7" type="motorbike" depart="56.15" departLane="random">
        <route edges="-E3 E2"/>
    </vehicle>
    <vehicle id="-E1__1__car.0" type="car" depart="60.03" departLane="random">
        <route edges="-E1 -E0"/>
    </vehicle>
    <vehicle id="-E3__1__motorbike.0" type="motorbike" depart="61.54" departLane="random">
        <route edges="-E3 E2"/>
    </vehicle>
    <vehicle id="E0__1__motorbike.0" type="motorbike" depart="61.72" departLane="random">
        <route edges="E0 E3"/>
    </vehicle>
    <vehicle id="-E3__1__motorbike.1" type="motorbike" depart="63.43" departLane="random">
        <route edges="-E3 E2"/>
    </vehicle>
    <vehicle id="-E3__1__car.0" type="car" depart="63.47" departLane="random">
        <route edges="-E3 E2"/>
    </vehicle>
    <vehicle id="-E1__1__motorbike.0" type="motorbike" depart="64.54" departLane="random">
        <route edges="-E1 -E0"/>
    </vehicle>
    <vehicle id="-E2__1__motorbike.0" type="motorbike" depart="69.31" departLane="random">
        <route edges="-E2 E1"/>
    </vehicle>
    <vehicle id="-E3__1__car.1" type="car" depart="70.17" departLane="random">
        <route edges="-E3 E2"/>
    </vehicle>
    <vehicle id="-E2__1__motorbike.1" type="motorbike" depart="71.26" departLane="random">
        <route edges="-E2 E1"/>
    </vehicle>
    <vehicle id="-E3__1__car.2" type="car" depart="72.29" departLane="random">
        <route edges="-E3 E1"/>
    </vehicle>
    <vehicle id="-E3__1__motorbike.2" type="motorbike" depart="72.41" departLane="random">
        <route edges="-E3 -E0"/>
    </vehicle>
    <vehicle id="-E3__1__motorbike.3" type="motorbike" depart="73.67" departLane="random">
        <route edges="-E3 E1"/>
    </vehicle>
    <vehicle id="E0__1__motorbike.1" type="motorbike" depart="74.01" departLane="random">
        <route edges="E0 E3"/>
    </vehicle>
    <vehicle id="-E2__1__motorbike.2" type="motorbike" depart="75.08" departLane="random">
        <route edges="-E2 E1"/>
    </vehicle>
    <vehicle id="-E2__1__car.0" type="car" depart="75.59" departLane="random">
        <route edges="-E2 -E0"/>
    </vehicle>
    <vehicle id="-E3__1__motorbike.4" type="motorbike" depart="76.46" departLane="random">
        <route edges="-E3 E1"/>
    </vehicle>
    <vehicle id="-E3__1__motorbike.5" type="motorbike" depart="76.73" departLane="random">
        <route edges="-E3 E2"/>
    </vehicle>
    <vehicle id="-E2__1__motorbike.3" type="motorbike" depart="78.84" departLane="random">
        <route edges="-E2 -E0"/>
    </vehicle>
    <vehicle id="-E3__1__motorbike.6" type="motorbike" depart="80.50" departLane="random">
        <route edges="-E3 E1"/>
    </vehicle>
    <vehicle id="E0__1__car.0" type="car" depart="83.16" departLane="random">
        <route edges="E0 E2"/>
    </vehicle>
    <vehicle id="E0__1__car.1" type="car" depart="85.86" departLane="random">
        <route edges="E0 E3"/>
    </vehicle>
    <vehicle id="-E1__1__motorbike.1" type="motorbike" depart="86.23" departLane="random">
        <route edges="-E1 E3"/>
    </vehicle>
    <vehicle id="-E1__1__motorbike.2" type="motorbike" depart="86.40" departLane="random">
        <route edges="-E1 -E0"/>
    </vehicle>
    <vehicle id="E0__1__motorbike.2" type="motorbike" depart="87.35" departLane="random">
        <route edges="E0 E1"/>
    </vehicle>
    <vehicle id="-E2__1__car.1" type="car" depart="89.83" departLane="random">
        <route edges="-E2 E1"/>
    </vehicle>
    <vehicle id="-E1__1__motorbike.3" type="motorbike" depart="90.89" departLane="random">
        <route edges="-E1 -E0"/>
    </vehicle>
    <vehicle id="-E1__1__motorbike.4" type="motorbike" depart="91.08" departLane="random">
        <route edges="-E1 E3"/>
    </vehicle>
    <vehicle id="E0__1__car.2" type="car" depart="95.70" departLane="random">
        <route edges="E0 E3"/>
    </vehicle>
    <vehicle id="-E3__1__car.3" type="car" depart="97.85" departLane="random">
        <route edges="-E3 E1"/>
    </vehicle>
    <vehicle id="-E1__1__motorbike.5" type="motorbike" depart="99.15" departLane="random">
        <route edges="-E1 E3"/>
    </vehicle>
    <vehicle id="-E2__1__car.2" type="car" depart="102.87" departLane="random">
        <route edges="-E2 E3"/>
    </vehicle>
    <vehicle id="-E2__1__motorbike.4" type="motorbike" depart="103.28" departLane="random">
        <route edges="-E2 E1"/>
    </vehicle>
    <vehicle id="E0__1__motorbike.3" type="motorbike" depart="104.98" departLane="random">
        <route edges="E0 E3"/>
    </vehicle>
    <vehicle id="-E2__1__car.3" type="car" depart="105.90" departLane="random">
        <route edges="-E2 E1"/>
    </vehicle>
    <vehicle id="E0__1__motorbike.4" type="motorbike" depart="107.92" departLane="random">
        <route edges="E0 E3"/>
    </vehicle>
    <vehicle id="-E1__1__car.1" type="car" depart="109.14" departLane="random">
        <route edges="-E1 E3"/>
    </vehicle>
    <vehicle id="E0__1__car.3" type="car" depart="110.44" departLane="random">
        <route edges="E0 E3"/>
    </vehicle>
    <vehicle id="E0__1__motorbike.5" type="motorbike" depart="110.49" departLane="random">
        <route edges="E0 E3"/>
    </vehicle>
    <vehicle id="-E2__1__motorbike.5" type="motorbike" depart="111.42" departLane="random">
        <route edges="-E2 E1"/>
    </vehicle>
    <vehicle id="E0__1__car.4" type="car" depart="112.24" departLane="random">
        <route edges="E0 E3"/>
    </vehicle>
    <vehicle id="-E2__1__motorbike.6" type="motorbike" depart="113.47" departLane="random">
        <route edges="-E2 E1"/>
    </vehicle>
    <vehicle id="-E1__1__car.2" type="car" depart="114.52" departLane="random">
        <route edges="-E1 E3"/>
    </vehicle>
    <vehicle id="-E1__1__motorbike.6" type="motorbike" depart="117.89" departLane="random">
        <route edges="-E1 -E0"/>
    </vehicle>
    <vehicle id="-E1__1__motorbike.7" type="motorbike" depart="119.78" departLane="random">
        <route edges="-E1 E2"/>
    </vehicle>
    <vehicle id="-E1__2__motorbike.0" type="motorbike" depart="120.09" departLane="random">
        <route edges="-E1 -E0"/>
    </vehicle>
    <vehicle id="-E1__2__motorbike.1" type="motorbike" depart="120.19" departLane="random">
        <route edges="-E1 E3"/>
    </vehicle>
    <vehicle id="E0__2__motorbike.0" type="motorbike" depart="120.29" departLane="random">
        <route edges="E0 E3"/>
    </vehicle>
    <vehicle id="E0__2__car.0" type="car" depart="122.31" departLane="random">
        <route edges="E0 E3"/>
    </vehicle>
    <vehicle id="-E1__2__motorbike.2" type="motorbike" depart="124.84" departLane="random">
        <route edges="-E1 E3"/>
    </vehicle>
    <vehicle id="-E3__2__motorbike.0" type="motorbike" depart="128.46" departLane="random">
        <route edges="-E3 E2"/>
    </vehicle>
    <vehicle id="-E3__2__motorbike.1" type="motorbike" depart="128.53" departLane="random">
        <route edges="-E3 E2"/>
    </vehicle>
    <vehicle id="-E3__2__car.0" type="car" depart="134.15" departLane="random">
        <route edges="-E3 E1"/>
    </vehicle>
    <vehicle id="-E2__2__motorbike.0" type="motorbike" depart="134.36" departLane="random">
        <route edges="-E2 E1"/>
    </vehicle>
    <vehicle id="-E2__2__motorbike.1" type="motorbike" depart="136.26" departLane="random">
        <route edges="-E2 E1"/>
    </vehicle>
    <vehicle id="E0__2__motorbike.1" type="motorbike" depart="137.86" departLane="random">
        <route edges="E0 E3"/>
    </vehicle>
    <vehicle id="-E3__2__motorbike.2" type="motorbike" depart="139.56" departLane="random">
        <route edges="-E3 E2"/>
    </vehicle>
    <vehicle id="E0__2__motorbike.2" type="motorbike" depart="144.00" departLane="random">
        <route edges="E0 E2"/>
    </vehicle>
    <vehicle id="-E2__2__motorbike.2" type="motorbike" depart="144.69" departLane="random">
        <route edges="-E2 E1"/>
    </vehicle>
    <vehicle id="-E3__2__car.1" type="car" depart="145.38" departLane="random">
        <route edges="-E3 E2"/>
    </vehicle>
    <vehicle id="-E1__2__motorbike.3" type="motorbike" depart="145.80" departLane="random">
        <route edges="-E1 -E0"/>
    </vehicle>
    <vehicle id="-E3__2__motorbike.3" type="motorbike" depart="148.54" departLane="random">
        <route edges="-E3 E2"/>
    </vehicle>
    <vehicle id="-E2__2__car.0" type="car" depart="150.51" departLane="random">
        <route edges="-E2 -E0"/>
    </vehicle>
    <vehicle id="E0__2__car.1" type="car" depart="151.41" departLane="random">
        <route edges="E0 E3"/>
    </vehicle>
    <vehicle id="-E3__2__car.2" type="car" depart="151.76" departLane="random">
        <route edges="-E3 E1"/>
    </vehicle>
    <vehicle id="-E1__2__motorbike.4" type="motorbike" depart="151.85" departLane="random">
        <route edges="-E1 -E0"/>
    </vehicle>
    <vehicle id="-E3__2__motorbike.4" type="motorbike" depart="151.94" departLane="random">
        <route edges="-E3 -E0"/>
    </vehicle>
    <vehicle id="-E3__2__motorbike.5" type="motorbike" depart="152.29" departLane="random">
        <route edges="-E3 E2"/>
    </vehicle>
    <vehicle id="E0__2__motorbike.3" type="motorbike" depart="153.35" departLane="random">
        <route edges="E0 E3"/>
    </vehicle>
    <vehicle id="E0__2__car.2" type="car" depart="153.66" departLane="random">
        <route edges="E0 E3"/>
    </vehicle>
    <vehicle id="E0__2__car.3" type="car" depart="154.35" departLane="random">
        <route edges="E0 E3"/>
    </vehicle>
    <vehicle id="E0__2__motorbike.4" type="motorbike" depart="155.15" departLane="random">
        <route edges="E0 E3"/>
    </vehicle>
    <vehicle id="-E2__2__motorbike.3" type="motorbike" depart="157.85" departLane="random">
        <route edges="-E2 -E0"/>
    </vehicle>
    <vehicle id="-E1__2__motorbike.5" type="motorbike" depart="159.52" departLane="random">
        <route edges="-E1 -E0"/>
    </vehicle>
    <vehicle id="-E2__2__motorbike.4" type="motorbike" depart="159.82" departLane="random">
        <route edges="-E2 E1"/>
    </vehicle>
    <vehicle id="-E1__2__car.0" type="car" depart="162.11" departLane="random">
        <route edges="-E1 -E0"/>
    </vehicle>
    <vehicle id="-E1__2__car.1" type="car" depart="162.53" departLane="random">
        <route edges="-E1 -E0"/>
    </vehicle>
    <vehicle id="E0__2__motorbike.5" type="motorbike" depart="162.62" departLane="random">
        <route edges="E0 E3"/>
    </vehicle>
    <vehicle id="-E1__2__car.2" type="car" depart="163.32" departLane="random">
        <route edges="-E1 -E0"/>
    </vehicle>
    <vehicle id="-E2__2__motorbike.5" type="motorbike" depart="163.99" departLane="random">
        <route edges="-E2 -E0"/>
    </vehicle>
    <vehicle id="-E2__2__motorbike.6" type="motorbike" depart="164.08" departLane="random">
        <route edges="-E2 E1"/>
    </vehicle>
    <vehicle id="E0__2__motorbike.6" type="motorbike" depart="164.42" departLane="random">
        <route edges="E0 E3"/>
    </vehicle>
    <vehicle id="-E1__2__car.3" type="car" depart="165.08" departLane="random">
        <route edges="-E1 -E0"/>
    </vehicle>
    <vehicle id="-E2__2__car.1" type="car" depart="165.09" departLane="random">
        <route edges="-E2 -E0"/>
    </vehicle>
    <vehicle id="-E2__2__motorbike.7" type="motorbike" depart="167.20" departLane="random">
        <route edges="-E2 -E0"/>
    </vehicle>
    <vehicle id="-E3__2__motorbike.6" type="motorbike" depart="169.49" departLane="random">
        <route edges="-E3 E2"/>
    </vehicle>
    <vehicle id="-E2__2__motorbike.8" type="motorbike" depart="173.82" departLane="random">
        <route edges="-E2 E1"/>
    </vehicle>
    <vehicle id="-E3__2__motorbike.7" type="motorbike" depart="177.22" departLane="random">
        <route edges="-E3 E2"/>
    </vehicle>
    <vehicle id="-E1__2__motorbike.6" type="motorbike" depart="178.72" departLane="random">
        <route edges="-E1 -E0"/>
    </vehicle>
    <vehicle id="-E1__3__motorbike.0" type="motorbike" depart="180.02" departLane="random">
        <route edges="-E1 E3"/>
    </vehicle>
    <vehicle id="-E3__3__motorbike.0" type="motorbike" depart="181.00" departLane="random">
        <route edges="-E3 -E0"/>
    </vehicle>
    <vehicle id="-E1__3__motorbike.1" type="motorbike" depart="181.48" departLane="random">
        <route edges="-E1 -E0"/>
    </vehicle>
    <vehicle id="E0__3__motorbike.0" type="motorbike" depart="183.60" departLane="random">
        <route edges="E0 E3"/>
    </vehicle>
    <vehicle id="-E2__3__motorbike.0" type="motorbike" depart="185.41" departLane="random">
        <route edges="-E2 E1"/>
    </vehicle>
    <vehicle id="E0__3__motorbike.1" type="motorbike" depart="188.79" departLane="random">
        <route edges="E0 E1"/>
    </vehicle>
    <vehicle id="-E3__3__car.0" type="car" depart="188.82" departLane="random">
        <route edges="-E3 -E0"/>
    </vehicle>
    <vehicle id="-E2__3__motorbike.1" type="motorbike" depart="189.59" departLane="random">
        <route edges="-E2 -E0"/>
    </vehicle>
    <vehicle id="-E1__3__motorbike.2" type="motorbike" depart="189.59" departLane="random">
        <route edges="-E1 -E0"/>
    </vehicle>
    <vehicle id="-E3__3__motorbike.1" type="motorbike" depart="193.75" departLane="random">
        <route edges="-E3 E2"/>
    </vehicle>
    <vehicle id="-E2__3__motorbike.2" type="motorbike" depart="196.61" departLane="random">
        <route edges="-E2 E1"/>
    </vehicle>
    <vehicle id="-E2__3__motorbike.3" type="motorbike" depart="197.09" departLane="random">
        <route edges="-E2 E1"/>
    </vehicle>
    <vehicle id="E0__3__motorbike.2" type="motorbike" depart="198.82" departLane="random">
        <route edges="E0 E3"/>
    </vehicle>
    <vehicle id="-E1__3__motorbike.3" type="motorbike" depart="199.11" departLane="random">
        <route edges="-E1 -E0"/>
    </vehicle>
    <vehicle id="-E1__3__motorbike.4" type="motorbike" depart="199.40" departLane="random">
        <route edges="-E1 E3"/>
    </vehicle>
    <vehicle id="-E3__3__car.1" type="car" depart="201.15" departLane="random">
        <route edges="-E3 E2"/>
    </vehicle>
    <vehicle id="-E3__3__car.2" type="car" depart="201.25" departLane="random">
        <route edges="-E3 E2"/>
    </vehicle>
    <vehicle id="-E1__3__motorbike.5" type="motorbike" depart="203.38" departLane="random">
        <route edges="-E1 -E0"/>
    </vehicle>
    <vehicle id="-E3__3__motorbike.2" type="motorbike" depart="205.18" departLane="random">
        <route edges="-E3 E1"/>
    </vehicle>
    <vehicle id="-E1__3__motorbike.6" type="motorbike" depart="205.85" departLane="random">
        <route edges="-E1 -E0"/>
    </vehicle>
    <vehicle id="-E1__3__car.0" type="car" depart="210.15" departLane="random">
        <route edges="-E1 -E0"/>
    </vehicle>
    <vehicle id="-E2__3__motorbike.4" type="motorbike" depart="213.16" departLane="random">
        <route edges="-E2 E1"/>
    </vehicle>
    <vehicle id="E0__3__motorbike.3" type="motorbike" depart="214.31" departLane="random">
        <route edges="E0 E3"/>
    </vehicle>
    <vehicle id="E0__3__motorbike.4" type="motorbike" depart="214.60" departLane="random">
        <route edges="E0 E3"/>
    </vehicle>
    <vehicle id="E0__3__car.0" type="car" depart="216.68" departLane="random">
        <route edges="E0 E3"/>
    </vehicle>
    <vehicle id="E0__3__motorbike.5" type="motorbike" depart="217.11" departLane="random">
        <route edges="E0 E2"/>
    </vehicle>
    <vehicle id="-E2__3__motorbike.5" type="motorbike" depart="219.77" departLane="random">
        <route edges="-E2 E1"/>
    </vehicle>
    <vehicle id="-E3__3__motorbike.3" type="motorbike" depart="220.90" departLane="random">
        <route edges="-E3 E2"/>
    </vehicle>
    <vehicle id="-E1__3__motorbike.7" type="motorbike" depart="223.50" departLane="random">
        <route edges="-E1 -E0"/>
    </vehicle>
    <vehicle id="E0__3__motorbike.6" type="motorbike" depart="224.11" departLane="random">
        <route edges="E0 E3"/>
    </vehicle>
    <vehicle id="-E3__3__car.3" type="car" depart="224.49" departLane="random">
        <route edges="-E3 E1"/>
    </vehicle>
    <vehicle id="E0__3__motorbike.7" type="motorbike" depart="225.63" departLane="random">
        <route edges="E0 E3"/>
    </vehicle>
    <vehicle id="-E3__3__motorbike.4" type="motorbike" depart="225.73" departLane="random">
        <route edges="-E3 E1"/>
    </vehicle>
    <vehicle id="-E1__3__car.1" type="car" depart="228.77" departLane="random">
        <route edges="-E1 -E0"/>
    </vehicle>
    <vehicle id="-E3__3__car.4" type="car" depart="228.93" departLane="random">
        <route edges="-E3 E2"/>
    </vehicle>
    <vehicle id="-E2__3__motorbike.6" type="motorbike" depart="230.83" departLane="random">
        <route edges="-E2 E3"/>
    </vehicle>
    <vehicle id="E0__3__motorbike.8" type="motorbike" depart="231.29" departLane="random">
        <route edges="E0 E2"/>
    </vehicle>
    <vehicle id="-E2__3__motorbike.7" type="motorbike" depart="231.40" departLane="random">
        <route edges="-E2 E1"/>
    </vehicle>
    <vehicle id="-E3__3__motorbike.5" type="motorbike" depart="231.75" departLane="random">
        <route edges="-E3 -E0"/>
    </vehicle>
    <vehicle id="-E2__3__car.0" type="car" depart="232.84" departLane="random">
        <route edges="-E2 E1"/>
    </vehicle>
    <vehicle id="-E1__3__car.2" type="car" depart="233.90" departLane="random">
        <route edges="-E1 -E0"/>
    </vehicle>
    <vehicle id="-E2__3__motorbike.8" type="motorbike" depart="233.95" departLane="random">
        <route edges="-E2 E1"/>
    </vehicle>
    <vehicle id="E0__3__motorbike.9" type="motorbike" depart="234.15" departLane="random">
        <route edges="E0 E2"/>
    </vehicle>
    <vehicle id="-E2__3__car.1" type="car" depart="237.52" departLane="random">
        <route edges="-E2 E1"/>
    </vehicle>
    <vehicle id="-E3__4__car.0" type="car" depart="240.93" departLane="random">
        <route edges="-E3 -E0"/>
    </vehicle>
    <vehicle id="-E2__4__car.0" type="car" depart="241.02" departLane="random">
        <route edges="-E2 E1"/>
    </vehicle>
    <vehicle id="-E2__4__car.1" type="car" depart="244.61" departLane="random">
        <route edges="-E2 E1"/>
    </vehicle>
    <vehicle id="-E2__4__car.2" type="car" depart="245.98" departLane="random">
        <route edges="-E2 E1"/>
    </vehicle>
    <vehicle id="-E1__4__motorbike.0" type="motorbike" depart="249.26" departLane="random">
        <route edges="-E1 -E0"/>
    </vehicle>
    <vehicle id="-E2__4__car.3" type="car" depart="251.59" departLane="random">
        <route edges="-E2 E1"/>
    </vehicle>
    <vehicle id="-E2__4__motorbike.0" type="motorbike" depart="255.04" departLane="random">
        <route edges="-E2 -E0"/>
    </vehicle>
    <vehicle id="-E3__4__motorbike.0" type="motorbike" depart="257.02" departLane="random">
        <route edges="-E3 E2"/>
    </vehicle>
    <vehicle id="-E1__4__motorbike.1" type="motorbike" depart="257.41" departLane="random">
        <route edges="-E1 -E0"/>
    </vehicle>
    <vehicle id="E0__4__car.0" type="car" depart="260.67" departLane="random">
        <route edges="E0 E3"/>
    </vehicle>
    <vehicle id="E0__4__car.1" type="car" depart="262.25" departLane="random">
        <route edges="E0 E2"/>
    </vehicle>
    <vehicle id="-E1__4__motorbike.2" type="motorbike" depart="262.40" departLane="random">
        <route edges="-E1 -E0"/>
    </vehicle>
    <vehicle id="-E2__4__car.4" type="car" depart="262.54" departLane="random">
        <route edges="-E2 -E0"/>
    </vehicle>
    <vehicle id="E0__4__motorbike.0" type="motorbike" depart="262.94" departLane="random">
        <route edges="E0 E3"/>
    </vehicle>
    <vehicle id="E0__4__motorbike.1" type="motorbike" depart="262.96" departLane="random">
        <route edges="E0 E3"/>
    </vehicle>
    <vehicle id="-E3__4__motorbike.1" type="motorbike" depart="263.79" departLane="random">
        <route edges="-E3 E1"/>
    </vehicle>
    <vehicle id="-E3__4__motorbike.2" type="motorbike" depart="263.95" departLane="random">
        <route edges="-E3 E2"/>
    </vehicle>
    <vehicle id="-E1__4__motorbike.3" type="motorbike" depart="264.84" departLane="random">
        <route edges="-E1 -E0"/>
    </vehicle>
    <vehicle id="-E2__4__motorbike.1" type="motorbike" depart="266.05" departLane="random">
        <route edges="-E2 -E0"/>
    </vehicle>
    <vehicle id="-E1__4__motorbike.4" type="motorbike" depart="267.54" departLane="random">
        <route edges="-E1 -E0"/>
    </vehicle>
    <vehicle id="E0__4__car.2" type="car" depart="269.11" departLane="random">
        <route edges="E0 E1"/>
    </vehicle>
    <vehicle id="-E1__4__motorbike.5" type="motorbike" depart="269.73" departLane="random">
        <route edges="-E1 -E0"/>
    </vehicle>
    <vehicle id="-E3__4__car.1" type="car" depart="269.77" departLane="random">
        <route edges="-E3 -E0"/>
    </vehicle>
    <vehicle id="E0__4__car.3" type="car" depart="270.31" departLane="random">
        <route edges="E0 E2"/>
    </vehicle>
    <vehicle id="-E2__4__motorbike.2" type="motorbike" depart="274.15" departLane="random">
        <route edges="-E2 E1"/>
    </vehicle>
    <vehicle id="-E3__4__motorbike.3" type="motorbike" depart="274.33" departLane="random">
        <route edges="-E3 E2"/>
    </vehicle>
    <vehicle id="E0__4__motorbike.2" type="motorbike" depart="275.51" departLane="random">
        <route edges="E0 E3"/>
    </vehicle>
    <vehicle id="-E2__4__motorbike.3" type="motorbike" depart="276.78" departLane="random">
        <route edges="-E2 E1"/>
    </vehicle>
    <vehicle id="-E3__4__motorbike.4" type="motorbike" depart="277.00" departLane="random">
        <route edges="-E3 E1"/>
    </vehicle>
    <vehicle id="E0__4__motorbike.3" type="motorbike" depart="277.15" departLane="random">
        <route edges="E0 E3"/>
    </vehicle>
    <vehicle id="-E1__4__motorbike.6" type="motorbike" depart="277.26" departLane="random">
        <route edges="-E1 -E0"/>
    </vehicle>
    <vehicle id="-E1__4__motorbike.7" type="motorbike" depart="277.41" departLane="random">
        <route edges="-E1 -E0"/>
    </vehicle>
    <vehicle id="E0__4__motorbike.4" type="motorbike" depart="278.52" departLane="random">
        <route edges="E0 E2"/>
    </vehicle>
    <vehicle id="E0__4__car.4" type="car" depart="279.42" departLane="random">
        <route edges="E0 E3"/>
    </vehicle>
    <vehicle id="-E2__4__car.5" type="car" depart="281.20" departLane="random">
        <route edges="-E2 E3"/>
    </vehicle>