<?xml version="1.0" encoding="UTF-8"?>

<!-- generated on 2025-11-20 13:53:55 by Eclipse SUMO jtrrouter Version 1.24.0
<jtrrouterConfiguration xmlns:xsi="http://www.w3.org/2001/XMLSchema-instance" xsi:noNamespaceSchemaLocation="http://sumo.dlr.de/xsd/jtrrouterConfiguration.xsd">

    <input>
        <net-file value="/home/hoanganh04/Projects/LLM-Assisted-Light/TSCScenario/map/./env/map.net.xml"/>
        <route-files value="/home/hoanganh04/Projects/LLM-Assisted-Light/TSCScenario/map/./_testflow.trip.xml"/>
        <turn-ratio-files value="/home/hoanganh04/Projects/LLM-Assisted-Light/TSCScenario/map/./_testflow.turndefs.xml"/>
    </input>

    <output>
        <output-file value="/home/hoanganh04/Projects/LLM-Assisted-Light/TSCScenario/map/./routes/tai_nan_1/vehicle.rou.xml"/>
    </output>

    <processing>
        <randomize-flows value="True"/>
        <accept-all-destinations value="True"/>
    </processing>

    <defaults>
        <departlane value="random"/>
    </defaults>

    <report>
        <no-warnings value="true"/>
    </report>

    <random_number>
        <seed value="777"/>
    </random_number>

</jtrrouterConfiguration>
-->

<routes xmlns:xsi="http://www.w3.org/2001/XMLSchema-instance" xsi:noNamespaceSchemaLocation="http://sumo.dlr.de/xsd/routes_file.xsd">
    <vType id="car" length="4.50" minGap="1.00" maxSpeed="11.11" desiredMaxSpeed="11.11" vClass="passenger" color="155,89,182" accel="1.5" tau="1.0"/>
    <vehicle id="-E5__0__car.0" type="car" depart="0.03" departLane="random">
        <route edges="-E5 -E0 E2"/>
    </vehicle>
    <vType id="motorbike" length="2.00" minGap="0.50" maxSpeed="11.11" desiredMaxSpeed="11.11" vClass="motorcycle" color="yellow" accel="1.5" tau="1.0"/>
    <vehicle id="-E3__0__motorbike.0" type="motorbike" depart="0.84" departLane="random">
        <route edges="-E3 E2"/>
    </vehicle>
    <vehicle id="E4__0__car.0" type="car" depart="1.54" departLane="random">
        <route edges="E4 -E0 E1"/>
    </vehicle>
    <vehicle id="E6__0__car.0" type="car" depart="1.72" departLane="random">
        <route edges="E6 -E4"/>
    </vehicle>
    <vehicle id="E4__0__car.1" type="car" depart="3.43" departLane="random">
        <route edges="E4 -E6"/>
    </vehicle>
    <vehicle id="E6__0__motorbike.0" type="motorbike" depart="3.47" departLane="random">
        <route edges="E6 -E4"/>
    </vehicle>
    <vehicle id="-E1__0__car.0" type="car" depart="3.58" departLane="random">
        <route edges="-E1 E2"/>
    </vehicle>
    <vehicle id="-E3__0__motorbike.1" type="motorbike" depart="4.16" departLane="random">
        <route edges="-E3 E0 -E4"/>
    </vehicle>
    <vehicle id="-E5__0__motorbike.0" type="motorbike" depart="4.54" departLane="random">
        <route edges="-E5 -E0 E1"/>
    </vehicle>
    <vehicle id="-E2__0__car.0" type="car" depart="5.68" departLane="random">
        <route edges="-E2 E3"/>
    </vehicle>
    <vehicle id="-E3__0__car.0" type="car" depart="5.99" departLane="random">
        <route edges="-E3 E0 -E6"/>
    </vehicle>
    <vehicle id="-E2__0__motorbike.0" type="motorbike" depart="6.54" departLane="random">
        <route edges="-E2 E1"/>
    </vehicle>
    <vehicle id="-E2__0__motorbike.1" type="motorbike" depart="6.80" departLane="random">
        <route edges="-E2 E3"/>
    </vehicle>
    <vehicle id="-E2__0__motorbike.2" type="motorbike" depart="7.71" departLane="random">
        <route edges="-E2 E0 E5"/>
    </vehicle>
    <vehicle id="-E3__0__car.1" type="car" depart="7.95" departLane="random">
        <route edges="-E3 E2"/>
    </vehicle>
    <vehicle id="-E5__0__car.1" type="car" depart="9.31" departLane="random">
        <route edges="-E5 -E4"/>
    </vehicle>
    <vehicle id="E6__0__motorbike.1" type="motorbike" depart="10.17" departLane="random">
        <route edges="E6 E5"/>
    </vehicle>
    <vehicle id="-E2__0__motorbike.3" type="motorbike" depart="10.82" departLane="random">
        <route edges="-E2 E1"/>
    </vehicle>
    <vehicle id="-E1__0__motorbike.0" type="motorbike" depart="10.88" departLane="random">
        <route edges="-E1 E0 -E6"/>
    </vehicle>
    <vehicle id="-E1__0__car.1" type="car" depart="11.03" departLane="random">
        <route edges="-E1 E2"/>
    </vehicle>
    <vehicle id="E4__0__motorbike.0" type="motorbike" depart="11.26" departLane="random">
        <route edges="E4 -E6"/>
    </vehicle>
    <vehicle id="E6__0__motorbike.2" type="motorbike" depart="12.29" departLane="random">
        <route edges="E6 E5"/>
    </vehicle>
    <vehicle id="-E2__0__motorbike.4" type="motorbike" depart="12.32" departLane="random">
        <route edges="-E2 E3"/>
    </vehicle>
    <vehicle id="E6__0__motorbike.3" type="motorbike" depart="12.41" departLane="random">
        <route edges="E6 -E0 E1"/>
    </vehicle>
    <vehicle id="E4__0__car.2" type="car" depart="13.67" departLane="random">
        <route edges="E4 -E0 E1"/>
    </vehicle>
    <vehicle id="E6__0__car.1" type="car" depart="14.01" departLane="random">
        <route edges="E6 -E0 E2"/>
    </vehicle>
    <vehicle id="E4__0__motorbike.1" type="motorbike" depart="15.08" departLane="random">
        <route edges="E4 E5"/>
    </vehicle>
    <vehicle id="E4__0__motorbike.2" type="motorbike" depart="15.59" departLane="random">
        <route edges="E4 -E0 E1"/>
    </vehicle>
    <vehicle id="-E3__0__motorbike.2" type="motorbike" depart="15.68" departLane="random">
        <route edges="-E3 E0 -E4"/>
    </vehicle>
    <vehicle id="-E1__0__motorbike.1" type="motorbike" depart="15.93" departLane="random">
        <route edges="-E1 E0 -E4"/>
    </vehicle>
    <vehicle id="E4__0__car.3" type="car" depart="16.46" departLane="random">
        <route edges="E4 E5"/>
    </vehicle>
    <vehicle id="E6__0__motorbike.4" type="motorbike" depart="16.73" departLane="random">
        <route edges="E6 -E0 E1"/>
    </vehicle>
    <vehicle id="-E3__0__motorbike.3" type="motorbike" depart="16.75" departLane="random">
        <route edges="-E3 E2"/>
    </vehicle>
    <vehicle id="-E1__0__car.2" type="car" depart="17.37" departLane="random">
        <route edges="-E1 E2"/>
    </vehicle>
    <vehicle id="E4__0__motorbike.3" type="motorbike" depart="18.84" departLane="random">
        <route edges="E4 -E6"/>
    </vehicle>
    <vehicle id="-E2__0__motorbike.5" type="motorbike" depart="19.28" departLane="random">
        <route edges="-E2 E3"/>
    </vehicle>
    <vehicle id="-E2__0__motorbike.6" type="motorbike" depart="20.32" departLane="random">
        <route edges="-E2 E3"/>
    </vehicle>
    <vehicle id="E6__0__motorbike.5" type="motorbike" depart="20.50" departLane="random">
        <route edges="E6 E5"/>
    </vehicle>
    <vehicle id="E6__0__car.2" type="car" depart="23.16" departLane="random">
        <route edges="E6 E5"/>
    </vehicle>
    <vehicle id="-E3__0__motorbike.4" type="motorbike" depart="23.35" departLane="random">
        <route edges="-E3 E0 -E4"/>
    </vehicle>
    <vehicle id="-E5__0__motorbike.1" type="motorbike" depart="25.22" departLane="random">
        <route edges="-E5 -E0 E1"/>
    </vehicle>
    <vehicle id="-E1__0__car.3" type="car" depart="25.90" departLane="random">
        <route edges="-E1 E0 E5"/>
    </vehicle>
    <vehicle id="-E5__0__motorbike.2" type="motorbike" depart="26.23" departLane="random">
        <route edges="-E5 -E4"/>
    </vehicle>
    <vehicle id="-E5__0__motorbike.3" type="motorbike" depart="26.40" departLane="random">
        <route edges="-E5 -E0 E2"/>
    </vehicle>
    <vehicle id="-E1__0__motorbike.2" type="motorbike" depart="26.70" departLane="random">
        <route edges="-E1 E3"/>
    </vehicle>
    <vehicle id="-E2__0__motorbike.7" type="motorbike" depart="26.95" departLane="random">
        <route edges="-E2 E3"/>
    </vehicle>
    <vehicle id="E6__0__car.3" type="car" depart="27.35" departLane="random">
        <route edges="E6 E5"/>
    </vehicle>
    <vehicle id="-E3__0__car.2" type="car" depart="28.29" departLane="random">
        <route edges="-E3 E0 -E4"/>
    </vehicle>
    <vehicle id="-E1__0__car.4" type="car" depart="28.79" departLane="random">
        <route edges="-E1 E0 -E4"/>
    </vehicle>
    <vehicle id="E4__0__motorbike.4" type="motorbike" depart="29.83" departLane="random">
        <route edges="E4 -E6"/>
    </vehicle>
    <vehicle id="-E5__0__motorbike.4" type="motorbike" depart="30.89" departLane="random">
        <route edges="-E5 -E6"/>
    </vehicle>
    <vehicle id="-E5__0__motorbike.5" type="motorbike" depart="31.08" departLane="random">
        <route edges="-E5 -E0 E2"/>
    </vehicle>
    <vehicle id="-E3__0__car.3" type="car" depart="33.66" departLane="random">
        <route edges="-E3 E0 -E4"/>
    </vehicle>
    <vehicle id="-E2__0__motorbike.8" type="motorbike" depart="35.91" departLane="random">
        <route edges="-E2 E3"/>
    </vehicle>
    <vehicle id="-E1__0__motorbike.3" type="motorbike" depart="36.79" departLane="random">
        <route edges="-E1 E3"/>
    </vehicle>
    <vehicle id="E6__0__motorbike.6" type="motorbike" depart="37.85" departLane="random">
        <route edges="E6 E5"/>
    </vehicle>
    <vehicle id="-E5__0__motorbike.6" type="motorbike" depart="39.15" departLane="random">
        <route edges="-E5 -E0 E3"/>
    </vehicle>
    <vehicle id="-E1__0__motorbike.4" type="motorbike" depart="40.54" departLane="random">
        <route edges="-E1 E2"/>
    </vehicle>
    <vehicle id="-E2__0__motorbike.9" type="motorbike" depart="40.85" departLane="random">
        <route edges="-E2 E0 -E4"/>
    </vehicle>
    <vehicle id="-E2__0__motorbike.10" type="motorbike" depart="41.30" departLane="random">
        <route edges="-E2 E1"/>
    </vehicle>
    <vehicle id="E4__0__car.4" type="car" depart="42.87" departLane="random">
        <route edges="E4 -E6"/>
    </vehicle>
    <vehicle id="-E3__0__car.4" type="car" depart="43.19" departLane="random">
        <route edges="-E3 E1"/>
    </vehicle>
    <vehicle id="E4__0__motorbike.5" type="motorbike" depart="43.28" departLane="random">
        <route edges="E4 E5"/>
    </vehicle>
    <vehicle id="-E1__0__car.5" type="car" depart="44.46" departLane="random">
        <route edges="-E1 E2"/>
    </vehicle>
    <vehicle id="E6__0__car.4" type="car" depart="44.98" departLane="random">
        <route edges="E6 -E0 E3"/>
    </vehicle>
    <vehicle id="E4__0__car.5" type="car" depart="45.90" departLane="random">
        <route edges="E4 -E6"/>
    </vehicle>
    <vehicle id="-E3__0__motorbike.5" type="motorbike" depart="46.02" departLane="random">
        <route edges="-E3 E0 E5"/>
    </vehicle>
    <vehicle id="-E3__0__motorbike.6" type="motorbike" depart="46.02" departLane="random">
        <route edges="-E3 E0 -E4"/>
    </vehicle>
    <vehicle id="E6__0__car.5" type="car" depart="47.92" departLane="random">
        <route edges="E6 -E4"/>
    </vehicle>
    <vehicle id="-E1__0__motorbike.5" type="motorbike" depart="47.92" departLane="random">
        <route edges="-E1 E2"/>
    </vehicle>
    <vehicle id="-E5__0__motorbike.7" type="motorbike" depart="48.14" departLane="random">
        <route edges="-E5 -E0 E3"/>
    </vehicle>
    <vehicle id="-E2__0__motorbike.11" type="motorbike" depart="48.23" departLane="random">
        <route edges="-E2 E1"/>
    </vehicle>
    <vehicle id="-E5__0__car.2" type="car" depart="49.14" departLane="random">
        <route edges="-E5 -E4"/>
    </vehicle>
    <vehicle id="E6__0__motorbike.7" type="motorbike" depart="50.49" departLane="random">
        <route edges="E6 -E0 E2"/>
    </vehicle>
    <vehicle id="E4__0__motorbike.6" type="motorbike" depart="51.42" departLane="random">
        <route edges="E4 -E6"/>
    </vehicle>
    <vehicle id="-E3__0__motorbike.7" type="motorbike" depart="51.52" departLane="random">
        <route edges="-E3 E1"/>
    </vehicle>
    <vehicle id="-E1__0__motorbike.6" type="motorbike" depart="52.13" departLane="random">
        <route edges="-E1 E0 E5"/>
    </vehicle>
    <vehicle id="-E3__0__motorbike.8" type="motorbike" depart="53.45" departLane="random">
        <route edges="-E3 E0 -E6"/>
    </vehicle>
    <vehicle id="E4__0__motorbike.7" type="motorbike" depart="53.47" departLane="random">
        <route edges="E4 -E6"/>
    </vehicle>
    <vehicle id="-E5__0__car.3" type="car" depart="54.52" departLane="random">
        <route edges="-E5 -E4"/>
    </vehicle>
    <vehicle id="-E1__0__motorbike.7" type="motorbike" depart="54.94" departLane="random">
        <route edges="-E1 E2"/>
    </vehicle>
    <vehicle id="-E2__0__car.1" type="car" depart="56.15" departLane="random">
        <route edges="-E2 E3"/>
    </vehicle>
    <vehicle id="-E5__0__motorbike.8" type="motorbike" depart="57.89" departLane="random">
        <route edges="-E5 -E0 E2"/>
    </vehicle>
    <vehicle id="-E5__0__motorbike.9" type="motorbike" depart="59.78" departLane="random">
        <route edges="-E5 -E0 E3"/>
    </vehicle>
    <vehicle id="-E5__1__car.0" type="car" depart="60.02" departLane="random">
        <route edges="-E5 -E0 E1"/>
    </vehicle>
    <vehicle id="-E1__1__motorbike.0" type="motorbike" depart="60.09" departLane="random">
        <route edges="-E1 E0 -E6"/>
    </vehicle>
    <vehicle id="-E1__1__motorbike.1" type="motorbike" depart="60.19" departLane="random">
        <route edges="-E1 E2"/>
    </vehicle>
    <vehicle id="-E3__1__car.0" type="car" depart="60.29" departLane="random">
        <route edges="-E3 E0 -E4"/>
    </vehicle>
    <vehicle id="E6__1__motorbike.0" type="motorbike" depart="61.00" departLane="random">
        <route edges="E6 E5"/>
    </vehicle>
    <vehicle id="-E5__1__car.1" type="car" depart="61.48" departLane="random">
        <route edges="-E5 -E0 E1"/>
    </vehicle>
    <vehicle id="-E5__1__motorbike.0" type="motorbike" depart="62.31" departLane="random">
        <route edges="-E5 -E0 E1"/>
    </vehicle>
    <vehicle id="-E1__1__motorbike.2" type="motorbike" depart="64.84" departLane="random">
        <route edges="-E1 E0 -E4"/>
    </vehicle>
    <vehicle id="E4__1__motorbike.0" type="motorbike" depart="65.41" departLane="random">
        <route edges="E4 -E6"/>
    </vehicle>
    <vehicle id="-E3__1__motorbike.0" type="motorbike" depart="68.46" departLane="random">
        <route edges="-E3 E1"/>
    </vehicle>
    <vehicle id="-E3__1__motorbike.1" type="motorbike" depart="68.53" departLane="random">
        <route edges="-E3 E2"/>
    </vehicle>
    <vehicle id="E6__1__car.0" type="car" depart="68.79" departLane="random">
        <route edges="E6 -E4"/>
    </vehicle>
    <vehicle id="E6__1__motorbike.1" type="motorbike" depart="68.82" departLane="random">
        <route edges="E6 -E0 E1"/>
    </vehicle>
    <vehicle id="E4__1__motorbike.1" type="motorbike" depart="69.59" departLane="random">
        <route edges="E4 -E6"/>
    </vehicle>
    <vehicle id="-E5__1__car.2" type="car" depart="69.59" departLane="random">
        <route edges="-E5 -E0 E1"/>
    </vehicle>
    <vehicle id="E6__1__motorbike.2" type="motorbike" depart="73.75" departLane="random">
        <route edges="E6 E5"/>
    </vehicle>
    <vehicle id="-E3__1__car.1" type="car" depart="74.15" departLane="random">
        <route edges="-E3 E2"/>
    </vehicle>
    <vehicle id="-E2__1__motorbike.0" type="motorbike" depart="74.36" departLane="random">
        <route edges="-E2 E3"/>
    </vehicle>
    <vehicle id="-E2__1__motorbike.1" type="motorbike" depart="76.26" departLane="random">
        <route edges="-E2 E1"/>
    </vehicle>
    <vehicle id="E4__1__motorbike.2" type="motorbike" depart="76.61" departLane="random">
        <route edges="E4 E5"/>
    </vehicle>
    <vehicle id="E4__1__motorbike.3" type="motorbike" depart="77.09" departLane="random">
        <route edges="E4 -E6"/>
    </vehicle>
    <vehicle id="-E3__1__car.2" type="car" depart="77.86" departLane="random">
        <route edges="-E3 E2"/>
    </vehicle>
    <vehicle id="E6__1__car.1" type="car" depart="78.82" departLane="random">
        <route edges="E6 E5"/>
    </vehicle>
    <vehicle id="-E5__1__car.3" type="car" depart="79.11" departLane="random">
        <route edges="-E5 -E6"/>
    </vehicle>
    <vehicle id="-E5__1__car.4" type="car" depart="79.40" departLane="random">
        <route edges="-E5 -E0 E1"/>
    </vehicle>
    <vehicle id="-E3__1__motorbike.2" type="motorbike" depart="79.56" departLane="random">
        <route edges="-E3 E0 E5"/>
    </vehicle>
    <vehicle id="E6__1__motorbike.3" type="motorbike" depart="81.15" departLane="random">
        <route edges="E6 E5"/>
    </vehicle>
    <vehicle id="E6__1__motorbike.4" type="motorbike" depart="81.25" departLane="random">
        <route edges="E6 E5"/>
    </vehicle>
    <vehicle id="-E5__1__motorbike.1" type="motorbike" depart="83.38" departLane="random">
        <route edges="-E5 -E0 E1"/>
    </vehicle>
    <vehicle id="-E3__1__car.3" type="car" depart="84.00" departLane="random">
        <route edges="-E3 E1"/>
    </vehicle>
    <vehicle id="-E2__1__motorbike.2" type="motorbike" depart="84.69" departLane="random">
        <route edges="-E2 E0 -E6"/>
    </vehicle>
    <vehicle id="E6__1__motorbike.5" type="motorbike" depart="85.18" departLane="random">
        <route edges="E6 -E0 E1"/>
    </vehicle>
    <vehicle id="-E3__1__car.4" type="car" depart="85.38" departLane="random">
        <route edges="-E3 E2"/>
    </vehicle>
    <vehicle id="-E1__1__motorbike.3" type="motorbike" depart="85.80" departLane="random">
        <route edges="-E1 E2"/>
    </vehicle>
    <vehicle id="-E5__1__car.5" type="car" depart="85.85" departLane="random">
        <route edges="-E5 -E0 E1"/>
    </vehicle>
    <vehicle id="-E1__1__motorbike.4" type="motorbike" depart="85.86" departLane="random">
        <route edges="-E1 E3"/>
    </vehicle>
    <vehicle id="-E3__1__motorbike.3" type="motorbike" depart="88.54" departLane="random">
        <route edges="-E3 E0 -E4"/>
    </vehicle>
    <vehicle id="E4__1__motorbike.4" type="motorbike" depart="90.15" departLane="random">
        <route edges="E4 -E6"/>
    </vehicle>
    <vehicle id="-E2__1__car.0" type="car" color="red" depart="90.51" departLane="random">
        <route edges="-E2 E0 -E4"/>
        <stop lane="-E2_1" startPos="120" endPos="120" duration="300"/>
    </vehicle>
    <vehicle id="-E5__1__motorbike.2" type="motorbike" depart="91.41" departLane="random">
        <route edges="-E5 -E0 E2"/>
    </vehicle>
    <vehicle id="-E3__1__motorbike.4" type="motorbike" depart="91.76" departLane="random">
        <route edges="-E3 E1"/>
    </vehicle>
    <vehicle id="-E1__1__motorbike.5" type="motorbike" depart="91.85" departLane="random">
        <route edges="-E1 E2"/>
    </vehicle>
    <vehicle id="-E2__1__car.1" type="car" depart="91.94" departLane="random">
        <route edges="-E2 E3"/>
    </vehicle>
    <vehicle id="-E3__1__motorbike.5" type="motorbike" depart="92.29" departLane="random">
        <route edges="-E3 E0 -E4"/>
    </vehicle>
    <vehicle id="E4__1__car.0" type="car" depart="93.16" departLane="random">
        <route edges="E4 -E6"/>
    </vehicle>
    <vehicle id="-E5__1__motorbike.3" type="motorbike" depart="93.35" departLane="random">
        <route edges="-E5 -E0 E1"/>
    </vehicle>
    <vehicle id="-E5__1__motorbike.4" type="motorbike" depart="93.66" departLane="random">
        <route edges="-E5 -E0 E3"/>
    </vehicle>
    <vehicle id="-E5__1__motorbike.5" type="motorbike" depart="94.35" departLane="random">
        <route edges="-E5 -E6"/>
    </vehicle>
    <vehicle id="-E3__1__car.5" type="car" depart="95.15" departLane="random">
        <route edges="-E3 E0 -E6"/>
    </vehicle>
    <vehicle id="-E1__1__motorbike.6" type="motorbike" depart="95.70" departLane="random">
        <route edges="-E1 E2"/>
    </vehicle>
    <vehicle id="-E2__1__motorbike.3" type="motorbike" depart="97.85" departLane="random">
        <route edges="-E2 E3"/>
    </vehicle>
    <vehicle id="-E1__1__motorbike.7" type="motorbike" depart="99.52" departLane="random">
        <route edges="-E1 E0 -E4"/>
    </vehicle>
    <vehicle id="E4__1__motorbike.5" type="motorbike" depart="99.77" departLane="random">
        <route edges="E4 -E0 E2"/>
    </vehicle>
    <vehicle id="-E2__1__motorbike.4" type="motorbike" depart="99.82" departLane="random">
        <route edges="-E2 E3"/>
    </vehicle>
    <vehicle id="E6__1__motorbike.6" type="motorbike" depart="100.90" departLane="random">
        <route edges="E6 E5"/>
    </vehicle>
    <vehicle id="-E1__1__car.0" type="car" depart="102.11" departLane="random">
        <route edges="-E1 E3"/>
    </vehicle>
    <vehicle id="-E1__1__car.1" type="car" depart="102.53" departLane="random">
        <route edges="-E1 E0 -E4"/>
    </vehicle>
    <vehicle id="-E3__1__car.6" type="car" depart="102.62" departLane="random">
        <route edges="-E3 E2"/>
    </vehicle>
    <vehicle id="-E1__1__car.2" type="car" depart="103.32" departLane="random">
        <route edges="-E1 E3"/>
    </vehicle>
    <vehicle id="-E5__1__motorbike.6" type="motorbike" depart="103.50" departLane="random">
        <route edges="-E5 -E6"/>
    </vehicle>
    <vehicle id="-E2__1__motorbike.5" type="motorbike" depart="103.99" departLane="random">
        <route edges="-E2 E0 -E6"/>
    </vehicle>
    <vehicle id="-E2__1__motorbike.6" type="motorbike" depart="104.08" departLane="random">
        <route edges="-E2 E1"/>
    </vehicle>
    <vehicle id="-E5__1__motorbike.7" type="motorbike" depart="104.42" departLane="random">
        <route edges="-E5 -E0 E1"/>
    </vehicle>
    <vehicle id="E6__1__motorbike.7" type="motorbike" depart="104.49" departLane="random">
        <route edges="E6 E5"/>
    </vehicle>
    <vehicle id="-E2__1__motorbike.7" type="motorbike" depart="105.08" departLane="random">
        <route edges="-E2 E3"/>
    </vehicle>
    <vehicle id="-E2__1__car.2" type="car" depart="105.09" departLane="random">
        <route edges="-E2 E3"/>
    </vehicle>
    <vehicle id="E6__1__motorbike.8" type="motorbike" depart="105.73" departLane="random">
        <route edges="E6 E5"/>
    </vehicle>
    <vehicle id="-E2__1__motorbike.8" type="motorbike" depart="107.20" departLane="random">
        <route edges="-E2 E0 -E4"/>
    </vehicle>
    <vehicle id="E4__1__motorbike.6" type="motorbike" depart="108.77" departLane="random">
        <route edges="E4 E5"/>
    </vehicle>
    <vehicle id="E6__1__car.2" type="car" depart="108.93" departLane="random">
        <route edges="E6 E5"/>
    </vehicle>
    <vehicle id="-E3__1__motorbike.6" type="motorbike" depart="109.49" departLane="random">
        <route edges="-E3 E0 -E6"/>
    </vehicle>
    <vehicle id="-E1__1__motorbike.8" type="motorbike" depart="110.44" departLane="random">
        <route edges="-E1 E2"/>
    </vehicle>
    <vehicle id="E4__1__car.1" type="car" depart="110.83" departLane="random">
        <route edges="E4 -E6"/>
    </vehicle>
    <vehicle id="E4__1__motorbike.7" type="motorbike" depart="111.40" departLane="random">
        <route edges="E4 -E6"/>
    </vehicle>
    <vehicle id="E6__1__motorbike.9" type="motorbike" depart="111.75" departLane="random">
        <route edges="E6 E5"/>
    </vehicle>
    <vehicle id="-E1__1__motorbike.9" type="motorbike" depart="112.24" departLane="random">
        <route edges="-E1 E2"/>
    </vehicle>
    <vehicle id="E4__1__car.2" type="car" depart="112.84" departLane="random">
        <route edges="E4 -E6"/>
    </vehicle>
    <vehicle id="-E2__1__motorbike.9" type="motorbike" depart="113.82" departLane="random">
        <route edges="-E2 E3"/>
    </vehicle>
    <vehicle id="E4__1__motorbike.8" type="motorbike" depart="113.90" departLane="random">
        <route edges="E4 -E0 E1"/>
    </vehicle>
    <vehicle id="E4__1__motorbike.9" type="motorbike" depart="113.95" departLane="random">
        <route edges="E4 E5"/>
    </vehicle>
    <vehicle id="E6__1__car.3" type="car" depart="114.15" departLane="random">
        <route edges="E6 E5"/>
    </vehicle>
    <vehicle id="-E2__1__car.3" type="car" depart="117.22" departLane="random">
        <route edges="-E2 E1"/>
    </vehicle>
    <vehicle id="E4__1__car.3" type="car" depart="117.52" departLane="random">
        <route edges="E4 -E6"/>
    </vehicle>
    <vehicle id="-E1__1__motorbike.10" type="motorbike" depart="118.72" departLane="random">
        <route edges="-E1 E0 -E6"/>
    </vehicle>
    <vehicle id="-E2__2__motorbike.0" type="motorbike" depart="121.21" departLane="random">
        <route edges="-E2 E3"/>
    </vehicle>
    <vehicle id="-E5__2__motorbike.0" type="motorbike" depart="123.44" departLane="random">
        <route edges="-E5 -E4"/>
    </vehicle>
    <vehicle id="-E5__2__motorbike.1" type="motorbike" depart="123.47" departLane="random">
        <route edges="-E5 -E0 E1"/>
    </vehicle>
    <vehicle id="-E1__2__motorbike.0" type="motorbike" depart="123.60" departLane="random">
        <route edges="-E1 E2"/>
    </vehicle>
    <vehicle id="E4__2__motorbike.0" type="motorbike" depart="124.98" departLane="random">
        <route edges="E4 -E0 E1"/>
    </vehicle>
    <vehicle id="E4__2__motorbike.1" type="motorbike" depart="125.02" departLane="random">
        <route edges="E4 -E6"/>
    </vehicle>
    <vehicle id="-E3__2__car.0" type="car" depart="125.34" departLane="random">
        <route edges="-E3 E0 -E6"/>
    </vehicle>
    <vehicle id="-E5__2__motorbike.2" type="motorbike" depart="126.85" departLane="random">
        <route edges="-E5 -E4"/>
    </vehicle>
    <vehicle id="-E5__2__car.0" type="car" depart="127.40" departLane="random">
        <route edges="-E5 -E4"/>
    </vehicle>
    <vehicle id="-E2__2__motorbike.1" type="motorbike" depart="127.55" departLane="random">
        <route edges="-E2 E3"/>
    </vehicle>
    <vehicle id="-E1__2__motorbike.1" type="motorbike" depart="129.26" departLane="random">
        <route edges="-E1 E2"/>
    </vehicle>
    <vehicle id="E4__2__motorbike.2" type="motorbike" depart="129.68" departLane="random">
        <route edges="E4 E5"/>
    </vehicle>
    <vehicle id="-E3__2__motorbike.0" type="motorbike" depart="130.58" departLane="random">
        <route edges="-E3 E1"/>
    </vehicle>
    <vehicle id="-E5__2__motorbike.3" type="motorbike" depart="130.71" departLane="random">
        <route edges="-E5 -E0 E3"/>
    </vehicle>
    <vehicle id="-E3__2__car.1" type="car" depart="130.81" departLane="random">
        <route edges="-E3 E0 E5"/>
    </vehicle>
    <vehicle id="E4__2__motorbike.3" type="motorbike" depart="133.00" departLane="random">
        <route edges="E4 E5"/>
    </vehicle>
    <vehicle id="-E5__2__motorbike.4" type="motorbike" depart="133.15" departLane="random">
        <route edges="-E5 -E0 E1"/>
    </vehicle>
    <vehicle id="-E3__2__car.2" type="car" depart="133.62" departLane="random">
        <route edges="-E3 E2"/>
    </vehicle>
    <vehicle id="E6__2__motorbike.0" type="motorbike" depart="133.90" departLane="random">
        <route edges="E6 E5"/>
    </vehicle>
    <vehicle id="-E2__2__motorbike.2" type="motorbike" depart="135.95" departLane="random">
        <route edges="-E2 E1"/>
    </vehicle>
    <vehicle id="-E1__2__car.0" type="car" depart="137.41" departLane="random">
        <route edges="-E1 E0 E5"/>
    </vehicle>
    <vehicle id="-E2__2__motorbike.3" type="motorbike" depart="138.20" departLane="random">
        <route edges="-E2 E3"/>
    </vehicle>
    <vehicle id="-E2__2__car.0" type="car" depart="140.24" departLane="random">
        <route edges="-E2 E3"/>
    </vehicle>
    <vehicle id="-E2__2__car.1" type="car" depart="142.06" departLane="random">
        <route edges="-E2 E3"/>
    </vehicle>
    <vehicle id="-E1__2__car.1" type="car" depart="142.40" departLane="random">
        <route edges="-E1 E0 -E6"/>
    </vehicle>
    <vehicle id="-E2__2__motorbike.4" type="motorbike" depart="143.58" departLane="random">
        <route edges="-E2 E0 -E6"/>
    </vehicle>
    <vehicle id="E4__2__motorbike.4" type="motorbike" depart="144.06" departLane="random">
        <route edges="E4 -E6"/>
    </vehicle>
    <vehicle id="-E1__2__car.2" type="car" depart="144.84" departLane="random">
        <route edges="-E1 E3"/>
    </vehicle>
    <vehicle id="-E2__2__motorbike.5" type="motorbike" depart="145.07" departLane="random">
        <route edges="-E2 E3"/>
    </vehicle>
    <vehicle id="-E2__2__motorbike.6" type="motorbike" depart="146.74" departLane="random">
        <route edges="-E2 E3"/>
    </vehicle>
    <vehicle id="E4__2__car.0" type="car" depart="146.84" departLane="random">
        <route edges="E4 -E6"/>
    </vehicle>
    <vehicle id="-E3__2__motorbike.1" type="motorbike" depart="147.01" departLane="random">
        <route edges="-E3 E1"/>
    </vehicle>
    <vehicle id="E6__2__motorbike.1" type="motorbike" depart="147.25" departLane="random">
        <route edges="E6 E5"/>
    </vehicle>
    <vehicle id="-E2__2__motorbike.7" type="motorbike" depart="147.54" departLane="random">
        <route edges="-E2 E1"/>
    </vehicle>
    <vehicle id="-E2__2__car.2" type="car" depart="148.08" departLane="random">
        <route edges="-E2 E1"/>
    </vehicle>
    <vehicle id="-E3__2__motorbike.2" type="motorbike" depart="148.11" departLane="random">
        <route edges="-E3 E0 -E4"/>
    </vehicle>
    <vehicle id="-E2__2__motorbike.8" type="motorbike" depart="149.73" departLane="random">
        <route edges="-E2 E0 -E4"/>
    </vehicle>
    <vehicle id="-E3__2__motorbike.3" type="motorbike" depart="150.61" departLane="random">
        <route edges="-E3 E0 E5"/>
    </vehicle>
    <vehicle id="-E3__2__car.3" type="car" depart="150.73" departLane="random">
        <route edges="-E3 E0 -E4"/>
    </vehicle>
    <vehicle id="-E3__2__car.4" type="car" depart="151.28" departLane="random">
        <route edges="-E3 E0 -E4"/>
    </vehicle>
    <vehicle id="-E3__2__car.5" type="car" depart="151.50" departLane="random">
        <route edges="-E3 E0 -E4"/>
    </vehicle>