<additional xmlns:xsi="http://www.w3.org/2001/XMLSchema-instance" xsi:noNamespaceSchemaLocation="http://sumo.dlr.de/xsd/additional_file.xsd">
    <laneAreaDetector file="e2.output.xml" freq="60" friendlyPos="x" id="e2det--J1--E0--E0_1--rs" lane="E0_1" pos="26.699999999999996" length="50"/>
    <laneAreaDetector file="e2.output.xml" freq="60" friendlyPos="x" id="e2det--J1--E0--E0_2--s" lane="E0_2" pos="26.699999999999996" length="50"/>
    <laneAreaDetector file="e2.output.xml" freq="60" friendlyPos="x" id="e2det--J1--E0--E0_3--sl" lane="E0_3" pos="26.699999999999996" length="50"/>
    <laneAreaDetector file="e2.output.xml" freq="60" friendlyPos="x" id="e2det--J1---E3---E3_1--rs" lane="-E3_1" pos="105.77000000000001" length="50"/>
    <laneAreaDetector file="e2.output.xml" freq="60" friendlyPos="x" id="e2det--J1---E3---E3_2--s" lane="-E3_2" pos="105.77000000000001" length="50"/>
    <laneAreaDetector file="e2.output.xml" freq="60" friendlyPos="x" id="e2det--J1---E3---E3_3--sl" lane="-E3_3" pos="105.77000000000001" length="50"/>
    <laneAreaDetector file="e2.output.xml" freq="60" friendlyPos="x" id="e2det--J1---E2---E2_1--rs" lane="-E2_1" pos="50.779999999999994" length="50"/>
    <laneAreaDetector file="e2.output.xml" freq="60" friendlyPos="x" id="e2det--J1---E2---E2_2--s" lane="-E2_2" pos="50.779999999999994" length="50"/>
    <laneAreaDetector file="e2.output.xml" freq="60" friendlyPos="x" id="e2det--J1---E2---E2_3--sl" lane="-E2_3" pos="50.779999999999994" length="50"/>
    <laneAreaDetector file="e2.output.xml" freq="60" friendlyPos="x" id="e2det--J1---E1---E1_1--rs" lane="-E1_1" pos="56.910000000000004" length="50"/>
    <laneAreaDetector file="e2.output.xml" freq="60" friendlyPos="x" id="e2det--J1---E1---E1_2--s" lane="-E1_2" pos="56.910000000000004" length="50"/>
    <laneAreaDetector file="e2.output.xml" freq="60" friendlyPos="x" id="e2det--J1---E1---E1_3--sl" lane="-E1_3" pos="56.910000000000004" length="50"/>
    <laneAreaDetector file="e2.output.xml" freq="60" friendlyPos="x" id="e2det--J4---E6---E6_1--rs" lane="-E6_1" pos="58.96" length="50"/>
    <laneAreaDetector file="e2.output.xml" freq="60" friendlyPos="x" id="e2det--J4---E6---E6_2--s" lane="-E6_2" pos="58.96" length="50"/>
    <laneAreaDetector file="e2.output.xml" freq="60" friendlyPos="x" id="e2det--J4---E6---E6_3--sl" lane="-E6_3" pos="58.96" length="50"/>
    <laneAreaDetector file="e2.output.xml" freq="60" friendlyPos="x" id="e2det--J4---E5---E5_1--rs" lane="-E5_1" pos="95.98000000000002" length="50"/>
    <laneAreaDetector file="e2.output.xml" freq="60" friendlyPos="x" id="e2det--J4---E5---E5_2--s" lane="-E5_2" pos="95.98000000000002" length="50"/>
    <laneAreaDetector file="e2.output.xml" freq="60" friendlyPos="x" id="e2det--J4---E5---E5_3--sl" lane="-E5_3" pos="95.98000000000002" length="50"/>
    <laneAreaDetector file="e2.output.xml" freq="60" friendlyPos="x" id="e2det--J4---E4---E4_1--rs" lane="-E4_1" pos="50.550000000000004" length="50"/>
    <laneAreaDetector file="e2.output.xml" freq="60" friendlyPos="x" id="e2det--J4---E4---E4_2--s" lane="-E4_2" pos="50.550000000000004" length="50"/>
    <laneAreaDetector file="e2.output.xml" freq="60" friendlyPos="x" id="e2det--J4---E4---E4_3--sl" lane="-E4_3" pos="50.550000000000004" length="50"/>
    <laneAreaDetector file="e2.output.xml" freq="60" friendlyPos="x" id="e2det--J4--E3--E3_1--rs" lane="E3_1" pos="105.77000000000001" length="50"/>
    <laneAreaDetector file="e2.output.xml" freq="60" friendlyPos="x" id="e2det--J4--E3--E3_2--s" lane="E3_2" pos="105.77000000000001" length="50"/>
    <laneAreaDetector file="e2.output.xml" freq="60" friendlyPos="x" id="e2det--J4--E3--E3_3--sl" lane="E3_3" pos="105.77000000000001" length="50"/>
</additional>
