<additional xmlns:xsi="http://www.w3.org/2001/XMLSchema-instance" xsi:noNamespaceSchemaLocation="http://sumo.dlr.de/xsd/additional_file.xsd">
    <laneAreaDetector file="e2.output.xml" freq="60" friendlyPos="x" id="e2det--J2---E3---E3_1--r" lane="-E3_1" pos="176.38" length="50"/>
    <laneAreaDetector file="e2.output.xml" freq="60" friendlyPos="x" id="e2det--J2---E3---E3_2--s" lane="-E3_2" pos="176.38" length="50"/>
    <laneAreaDetector file="e2.output.xml" freq="60" friendlyPos="x" id="e2det--J2---E3---E3_3--l" lane="-E3_3" pos="176.38" length="50"/>
    <laneAreaDetector file="e2.output.xml" freq="60" friendlyPos="x" id="e2det--J2---E2---E2_1--r" lane="-E2_1" pos="106.47" length="50"/>
    <laneAreaDetector file="e2.output.xml" freq="60" friendlyPos="x" id="e2det--J2---E2---E2_2--s" lane="-E2_2" pos="106.47" length="50"/>
    <laneAreaDetector file="e2.output.xml" freq="60" friendlyPos="x" id="e2det--J2---E2---E2_3--l" lane="-E2_3" pos="106.47" length="50"/>
    <laneAreaDetector file="e2.output.xml" freq="60" friendlyPos="x" id="e2det--J2---E1---E1_1--r" lane="-E1_1" pos="114.21000000000001" length="50"/>
    <laneAreaDetector file="e2.output.xml" freq="60" friendlyPos="x" id="e2det--J2---E1---E1_2--s" lane="-E1_2" pos="114.21000000000001" length="50"/>
    <laneAreaDetector file="e2.output.xml" freq="60" friendlyPos="x" id="e2det--J2---E1---E1_3--l" lane="-E1_3" pos="114.21000000000001" length="50"/>
    <laneAreaDetector file="e2.output.xml" freq="60" friendlyPos="x" id="e2det--J2--E0--E0_1--r" lane="E0_1" pos="80.73000000000002" length="50"/>
    <laneAreaDetector file="e2.output.xml" freq="60" friendlyPos="x" id="e2det--J2--E0--E0_2--s" lane="E0_2" pos="80.73000000000002" length="50"/>
    <laneAreaDetector file="e2.output.xml" freq="60" friendlyPos="x" id="e2det--J2--E0--E0_3--l" lane="E0_3" pos="80.73000000000002" length="50"/>
    <laneAreaDetector file="e2.output.xml" freq="60" friendlyPos="x" id="e2det--J4--E2--E2_1--r" lane="E2_1" pos="106.47" length="50"/>
    <laneAreaDetector file="e2.output.xml" freq="60" friendlyPos="x" id="e2det--J4--E2--E2_2--s" lane="E2_2" pos="106.47" length="50"/>
    <laneAreaDetector file="e2.output.xml" freq="60" friendlyPos="x" id="e2det--J4--E2--E2_3--l" lane="E2_3" pos="106.47" length="50"/>
    <laneAreaDetector file="e2.output.xml" freq="60" friendlyPos="x" id="e2det--J4--E7--E7_1--r" lane="E7_1" pos="179.76000000000002" length="50"/>
    <laneAreaDetector file="e2.output.xml" freq="60" friendlyPos="x" id="e2det--J4--E7--E7_2--s" lane="E7_2" pos="179.76000000000002" length="50"/>
    <laneAreaDetector file="e2.output.xml" freq="60" friendlyPos="x" id="e2det--J4--E7--E7_3--l" lane="E7_3" pos="179.76000000000002" length="50"/>
    <laneAreaDetector file="e2.output.xml" freq="60" friendlyPos="x" id="e2det--J4---E10---E10_1--r" lane="-E10_1" pos="166.64000000000001" length="50"/>
    <laneAreaDetector file="e2.output.xml" freq="60" friendlyPos="x" id="e2det--J4---E10---E10_2--s" lane="-E10_2" pos="166.64000000000001" length="50"/>
    <laneAreaDetector file="e2.output.xml" freq="60" friendlyPos="x" id="e2det--J4---E10---E10_3--l" lane="-E10_3" pos="166.64000000000001" length="50"/>
    <laneAreaDetector file="e2.output.xml" freq="60" friendlyPos="x" id="e2det--J4---E11---E11_1--r" lane="-E11_1" pos="224.04999999999998" length="50"/>
    <laneAreaDetector file="e2.output.xml" freq="60" friendlyPos="x" id="e2det--J4---E11---E11_2--s" lane="-E11_2" pos="224.04999999999998" length="50"/>
    <laneAreaDetector file="e2.output.xml" freq="60" friendlyPos="x" id="e2det--J4---E11---E11_3--l" lane="-E11_3" pos="224.04999999999998" length="50"/>
    <laneAreaDetector file="e2.output.xml" freq="60" friendlyPos="x" id="e2det--J5---E5---E5_1--r" lane="-E5_1" pos="119.92000000000002" length="50"/>
    <laneAreaDetector file="e2.output.xml" freq="60" friendlyPos="x" id="e2det--J5---E5---E5_2--s" lane="-E5_2" pos="119.92000000000002" length="50"/>
    <laneAreaDetector file="e2.output.xml" freq="60" friendlyPos="x" id="e2det--J5---E5---E5_3--l" lane="-E5_3" pos="119.92000000000002" length="50"/>
    <laneAreaDetector file="e2.output.xml" freq="60" friendlyPos="x" id="e2det--J5---E6---E6_1--r" lane="-E6_1" pos="103.23000000000002" length="50"/>
    <laneAreaDetector file="e2.output.xml" freq="60" friendlyPos="x" id="e2det--J5---E6---E6_2--s" lane="-E6_2" pos="103.23000000000002" length="50"/>
    <laneAreaDetector file="e2.output.xml" freq="60" friendlyPos="x" id="e2det--J5---E6---E6_3--l" lane="-E6_3" pos="103.23000000000002" length="50"/>
    <laneAreaDetector file="e2.output.xml" freq="60" friendlyPos="x" id="e2det--J5--E3--E3_1--r" lane="E3_1" pos="176.38" length="50"/>
    <laneAreaDetector file="e2.output.xml" freq="60" friendlyPos="x" id="e2det--J5--E3--E3_2--s" lane="E3_2" pos="176.38" length="50"/>
    <laneAreaDetector file="e2.output.xml" freq="60" friendlyPos="x" id="e2det--J5--E3--E3_3--l" lane="E3_3" pos="176.38" length="50"/>
    <laneAreaDetector file="e2.output.xml" freq="60" friendlyPos="x" id="e2det--J5---E4---E4_1--r" lane="-E4_1" pos="93.51000000000002" length="50"/>
    <laneAreaDetector file="e2.output.xml" freq="60" friendlyPos="x" id="e2det--J5---E4---E4_2--s" lane="-E4_2" pos="93.51000000000002" length="50"/>
    <laneAreaDetector file="e2.output.xml" freq="60" friendlyPos="x" id="e2det--J5---E4---E4_3--l" lane="-E4_3" pos="93.51000000000002" length="50"/>
    <laneAreaDetector file="e2.output.xml" freq="60" friendlyPos="x" id="e2det--J8---E8---E8_1--r" lane="-E8_1" pos="151.21" length="50"/>
    <laneAreaDetector file="e2.output.xml" freq="60" friendlyPos="x" id="e2det--J8---E8---E8_2--s" lane="-E8_2" pos="151.21" length="50"/>
    <laneAreaDetector file="e2.output.xml" freq="60" friendlyPos="x" id="e2det--J8---E8---E8_3--l" lane="-E8_3" pos="151.21" length="50"/>
    <laneAreaDetector file="e2.output.xml" freq="60" friendlyPos="x" id="e2det--J8---E9---E9_1--r" lane="-E9_1" pos="162.79" length="50"/>
    <laneAreaDetector file="e2.output.xml" freq="60" friendlyPos="x" id="e2det--J8---E9---E9_2--s" lane="-E9_2" pos="162.79" length="50"/>
    <laneAreaDetector file="e2.output.xml" freq="60" friendlyPos="x" id="e2det--J8---E9---E9_3--l" lane="-E9_3" pos="162.79" length="50"/>
    <laneAreaDetector file="e2.output.xml" freq="60" friendlyPos="x" id="e2det--J8---E7---E7_1--r" lane="-E7_1" pos="179.76000000000002" length="50"/>
    <laneAreaDetector file="e2.output.xml" freq="60" friendlyPos="x" id="e2det--J8---E7---E7_2--s" lane="-E7_2" pos="179.76000000000002" length="50"/>
    <laneAreaDetector file="e2.output.xml" freq="60" friendlyPos="x" id="e2det--J8---E7---E7_3--l" lane="-E7_3" pos="179.76000000000002" length="50"/>
    <laneAreaDetector file="e2.output.xml" freq="60" friendlyPos="x" id="e2det--J8--E6--E6_1--r" lane="E6_1" pos="103.23000000000002" length="50"/>
    <laneAreaDetector file="e2.output.xml" freq="60" friendlyPos="x" id="e2det--J8--E6--E6_2--s" lane="E6_2" pos="103.23000000000002" length="50"/>
    <laneAreaDetector file="e2.output.xml" freq="60" friendlyPos="x" id="e2det--J8--E6--E6_3--l" lane="E6_3" pos="103.23000000000002" length="50"/>
</additional>
