<additional xmlns:xsi="http://www.w3.org/2001/XMLSchema-instance" xsi:noNamespaceSchemaLocation="http://sumo.dlr.de/xsd/additional_file.xsd">
    <timedEvent type="SaveTLSStates" source="98009581" dest="SaveTLSStates_98009581.out.xml"/>
    <timedEvent type="SaveTLSStates" source="98009580" dest="SaveTLSStates_98009580.out.xml"/>
    <timedEvent type="SaveTLSProgram" source="98009581" dest="SaveTLSProgram_98009581.out.xml"/>
    <timedEvent type="SaveTLSProgram" source="98009580" dest="SaveTLSProgram_98009580.out.xml"/>
    <timedEvent type="SaveTLSSwitchStates" source="98009581" dest="SaveTLSSwitchStates_98009581.out.xml"/>
    <timedEvent type="SaveTLSSwitchStates" source="98009580" dest="SaveTLSSwitchStates_98009580.out.xml"/>
    <timedEvent type="SaveTLSSwitchTimes" source="98009581" dest="SaveTLSSwitchTimes_98009581.out.xml"/>
    <timedEvent type="SaveTLSSwitchTimes" source="98009580" dest="SaveTLSSwitchTimes_98009580.out.xml"/>
</additional>
